{"PreCone(1)": 0.0, "BldEdgSh(2)_3": 0.3043, "BldFl2Sh(5)_3": 13.8317, "BldFl2Sh(5)_2": 13.8317, "BldFl2Sh(5)_1": 13.8317, "ShadHWid": 9999.9, "NBlInpSt_1": 21.0, "NBlInpSt_3": 21.0, "TEC_RRes": 9999.9, "TabDelim": "True", "VS_Rgn2K": 0.0012926815, "TwrFile": "WP0.75A08V00_Tower.dat", "NacCMyn": 0.0, "NcIMUxn": 0.0, "AdjBlMs_3": 1.0, "AdjBlMs_2": 1.0, "AdjFASt": 1.0, "VSContrl": 1.0, "TwSSDOF1": "True", "TPitManE(2)": 9999.9, "GenDOF": "True", "LinFile": "WP_Template_Linear.dat", "BlPitchF(3)": 2.6, "BldFl2Sh(3)_3": -3.0061, "Delta3": 0.0, "YawBrMass": 0.0, "RPM2PI_Num": [2.22, 0.0], "THSSBrDp": 9999.9, "TwSSM1Sh(5)": 0.4353, "SIG_SlPc": 9999.9, "NTwInpSt": 10.0, "StallMod": "BEDDOES", "T_Shad_Refpt": 9999.9, "TwrSSDmp(1)": 3.435, "GBRevers": "False", "PtfmFile": "unused", "BldFlDmp(1)_3": 3.882, "TPitManS(1)": 9999.9, "CNST(1)": -1.0, "BldFlDmp(1)_1": 3.882, "YawDOF": "False", "FlStTunr(2)_2": 1.0, "TEC_MR": 9999.9, "AdjTwMa": 1.0, "AdjFlSt_2": 1.0, "GenIner": 16.65112, "TwFADOF1": "True", "TwFAM2Sh(6)": -18.76, "TwFADOF2": "True", "NacYaw": 0.0, "NumFoil": 4, "GBoxEff": 100.0, "YawSpr": 0.0, "BldFl2Sh(4)_1": -1.6204, "BldFlDmp(1)_2": 3.882, "BldFl2Sh(4)_3": -1.6204, "BldEdgSh(3)_3": 3.8107, "TwSSM1Sh(3)": 0.3408, "BldEdgSh(3)_1": 3.8107, "NacCMxn": -0.05995, "TeetDefl": 0.0, "ShftTilt": -5.0, "AirDens": 1.225, "TEC_VLL": 9999.9, "FlStTunr(2)_1": 1.0, "TPitManE(3)": 9999.9, "ShftGagL": 0.0, "YCMode": 0.0, "NTwGages": 0.0, "BldEdgSh(4)_3": -7.7536, "FlStTunr(1)_3": 1.0, "SumPrint": "False", "TMax": 630.0, "BldFl2Sh(2)_2": -0.2631, "TwSSM1Sh(2)": 0.8565, "FlStTunr(1)_2": 1.0, "Echo": "False", "TwrSSDmp(2)": 3.435, "TeetDmp": 0.0, "TPitManS(2)": 9999.9, "NoiseFile": "unused", "CNST(3)": 0.3, "AdjBlMs_1": 1.0, "TTDspFA": 0.0, "AeroCent_2": "BlFract", "FlapDOF1": "True", "FlapDOF2": "True", "AeroCent_1": "BlFract", "AdjFlSt_3": 1.0, "TwrCmnt": "FAST v7.02 tower file for turbine \"WP0.75A08V00\" (J. Rinker, Duke University, 30-Dec-15)", "BldFlDmp(2)_3": 3.882, "BldFl1Sh(6)_2": -0.8256, "TwrShad": 0.0, "TYCOn": 9999.9, "GBRatio": 62.83185307, "TowerHt": 58.67, "Gravity": 9.80665, "FlStTunr(1)_1": 1.0, "BldFile(1)": "WP0.75A08V00_Blade.dat", "Furling": "False", "BldFl1Sh(6)_1": -0.8256, "RPM2P_Den": [1.0, 0.02], "TurbName": "WP0.75A08V00", "BldFl2Sh(2)_1": -0.2631, "BldFile(3)": "WP0.75A08V00_Blade.dat", "BldFl1Sh(3)_1": 1.9789, "TwSSM2Sh(3)": 9.2212, "CompAero": "True", "ADCmnt": "FAST v7.02 AeroDyn file for turbine \"WP0.75A08V00\" (J. Rinker, Duke University, 30-Dec-15)", "TYawManE": 9999.9, "CNST(7)": 0.045378561, "BldEdgSh(3)_2": 3.8107, "BldEdgSh(2)_2": 0.3043, "BldEdgSh(2)_1": 0.3043, "TBDepISp(3)": 9999.9, "BlPitchF(1)": 2.6, "FlStTunr(2)_3": 1.0, "FoilNm": ["cylinder.dat", "s818_2703.dat", "s825_2103.dat", "s826_1603.dat"], "RPM2PI_Den": [0.0, 1.0], "TYawManS": 9999.9, "TipMass(3)": 0.0, "GenTiStr": "True", "TwSSDOF2": "True", "GenTiStp": "True", "TwSSM2Sh(2)": -21.2482, "SSStTunr(2)": 1.0, "UndSling": 0.0, "TPitManS(3)": 9999.9, "TeetMod": 0.0, "PSpnElN": 1.0, "BldFlDmp(2)_2": 3.882, "RotSpeed": 23.1, "TTpBrDp(3)": 9999.9, "BldFlDmp(2)_1": 3.882, "AdjFlSt_1": 1.0, "FAStTunr(2)": 1.0, "TeetDmpP": 0.0, "P2P_Order": 2, "IndModel": "SWIRL", "TwFAM2Sh(3)": 9.2212, "AToler": 0.005, "InfModel": "EQUIL", "PtfmModel": 0.0, "TiDynBrk": 9999.9, "NcIMUyn": 0.0, "BldFl1Sh(2)_3": 0.0734, "DynBrkFi": "unused", "TwFAM1Sh(2)": 0.8565, "NumBl": 3.0, "HubRad": 1.25, "TwSSM2Sh(5)": 21.0894, "TwrSched": [[0.0, 1456.569981, 62126221900.0, 62126221900.0, 47789401500.0, 35342917400.0], [0.1111111, 1319.664391, 50601045300.0, 50601045300.0, 38923881000.0, 32020974000.0], [0.2222222, 1189.47221, 40756895100.0, 40756895100.0, 31351457800.0, 28861928100.0], [0.3333333, 1065.993438, 32422036100.0, 32422036100.0, 24940027800.0, 25865779500.0], [0.4444444, 949.2280751, 25433971600.0, 25433971600.0, 19564593500.0, 23032528400.0], [0.5555556, 839.176121, 19639443100.0, 19639443100.0, 15107263900.0, 20362174600.0], [0.6666667, 735.8375758, 14894430800.0, 14894430800.0, 11457254400.0, 17854718200.0], [0.7777778, 639.2124396, 11064153000.0, 11064153000.0, 8510886910.0, 15510159300.0], [0.8888889, 549.3007123, 8023066580.0, 8023066580.0, 6171589680.0, 13328497700.0], [1.0, 466.102394, 5654866780.0, 5654866780.0, 4349897520.0, 11309733600.0]], "EdgeDOF": "True", "TBDepISp(2)": 9999.9, "CalcBMode_3": "False", "TwrFADmp(2)": 3.435, "P2P_Den": [144.0, 19.2, 1.0], "TipMass(2)": 0.0, "TLModel": "PRANDtl", "CNST(11)": 0.0, "TEC_SRes": 9999.9, "RatedPwr": 750000.0, "TurbDir": "C:\\Users\\jrinker\\Documents\\GitHub\\dissertation\\FAST_models\\WindPACT\\code\\templates", "ADAMSFile": "WP_Template_ADAMS.dat", "TwSSM2Sh(4)": 10.6976, "OverHang": -2.33, "BldFile(2)": "WP0.75A08V00_Blade.dat", "SpdGenOn": 9999.9, "NacYIner": 8623.124414, "CalcTMode": "False", "AeroCent_3": "BlFract", "FAStTunr(1)": 1.0, "TeetHSSp": 0.0, "BldEdDmp(1)_3": 5.9, "IPDefl": 0.0, "AzimB1Up": 0.0, "TA2P_Order": 0, "TwFAM2Sh(2)": -21.2482, "BldNodes": 15.0, "BldEdDmp(1)_2": 5.9, "TTpBrDp(1)": 9999.9, "TwrNodes": 10.0, "TEC_SLR": 9999.9, "TwSSM1Sh(6)": -0.2673, "BldFl2Sh(2)_3": -0.2631, "DrTrDOF": "True", "TBDrConD": 0.0, "TA2P_Num": [9.64, 1.4], "CalcBMode_1": "False", "CalcBMode_2": "False", "TPitManE(1)": 9999.9, "TwrGagNd": 0.0, "TeetHStP": 0.0, "OutFileFmt": 1.0, "BldEdgSh(6)_3": -2.5554, "TBDepISp(1)": 9999.9, "NacMass": 20950.24426, "HSSBrTqF": 9999.9, "TwrRBHt": 0.0, "TwFAM1Sh(6)": -0.2673, "NCSNT": 11.0, "PCMode": 1.0, "TipMass(1)": 0.0, "TipRad": 25.0, "ADFile": "WP0.75A08V00_AD.ipt", "TBDrConN": 0.0, "ADSched": [[2.0416666667, 11.1, 1.583333333, 1.391809, 1.0, "NOPRINT"], [3.625, 11.1, 1.583333333, 1.6206333, 2.0, "NOPRINT"], [5.2083333333, 11.1, 1.583333333, 1.8494577, 2.0, "NOPRINT"], [6.7916666667, 10.4066667, 1.583333333, 1.9595614, 2.0, "NOPRINT"], [8.375, 8.38, 1.583333333, 1.8413564, 2.0, "NOPRINT"], [9.9583333333, 6.3533333, 1.583333333, 1.7231513, 2.0, "NOPRINT"], [11.5416666667, 4.3266667, 1.583333333, 1.6049462, 2.0, "NOPRINT"], [13.125, 2.85, 1.583333333, 1.4867666, 3.0, "NOPRINT"], [14.7083333333, 2.2166667, 1.583333333, 1.3686259, 3.0, "NOPRINT"], [16.2916666667, 1.5833333, 1.583333333, 1.2504851, 3.0, "NOPRINT"], [17.875, 0.95, 1.583333333, 1.1323444, 3.0, "NOPRINT"], [19.4583333333, 0.532, 1.583333333, 1.0194717, 3.0, "NOPRINT"], [21.0416666667, 0.38, 1.583333333, 0.9131064, 3.0, "NOPRINT"], [22.625, 0.228, 1.583333333, 0.8067412, 4.0, "NOPRINT"], [24.2083333333, 0.076, 1.583333333, 0.7003759, 4.0, "NOPRINT"]], "TEC_RLR": 9999.9, "CNST(5)": 90.0, "TEC_NPol": 9998.0, "KinVisc": 1.4639e-05, "HubMass": 6573.934856, "BldFl2Sh(3)_2": -3.0061, "BldFl2Sh(6)_2": -7.9422, "VS_RtGnSp": 1800.0, "WindFile": "{:s}", "BldFl2Sh(6)_1": -7.9422, "CNST(6)": 0.025, "BlPitchF(2)": 2.6, "RPM2P_Num": [5.14, 0.08], "BldEdgSh(5)_1": 7.194, "TEC_Freq": 9999.9, "BldEdgSh(5)_3": 7.194, "BldEdgSh(5)_2": 7.194, "TeetCDmp": 0.0, "TMassDen": "HtFract", "TA2P_Den": [0.358, 1.0], "AdjSSSt": 1.0, "CNST(10)": -0.5, "TTpBrDp(2)": 9999.9, "TTDspSS": 0.0, "BldFl1Sh(6)_3": -0.8256, "BldEdgSh(4)_1": -7.7536, "BlPitch(1)": 2.6, "TPCOn": 1.0, "TimGenOn": 0.0, "UseCm": "NO_CM", "NcIMUzn": 0.0, "HH": 60.203072880602043, "TimGenOf": 9999.9, "BldEdDmp(1)_1": 5.9, "TwFAM1Sh(5)": 0.4353, "DecFact": 10.0, "CNST(2)": 28.64788976, "PreCone(2)": 0.0, "TwFAM2Sh(4)": 10.6976, "FASTCmnt1": "FAST v7.02 input file for turbine \"WP0.75A08V00\"", "BldEdgSh(6)_1": -2.5554, "BldEdgSh(6)_2": -2.5554, "FASTCmnt2": "Generated by J. Rinker (Duke University) on 30-Dec-15 based on WindPACT Excel input files", "SysUnits": "SI", "SSStTunr(1)": 1.0, "HubCM": 0.0, "ADAMSPrep": 1.0, "CntrlRgn": 3.0, "HSSBrMode": 1.0, "OutFmt": "ES10.3E2", "VS_RtTq": 4188.287976, "BldSched_2": [[0.0, 0.25, 11.1, 1181.9474018, 2362410000.0, 2362410000.0, 815591000.0, 10326600000.0], [0.021053, 0.25, 11.1, 89.2153055, 292872000.0, 292872000.0, 102340000.0, 1295780000.0], [0.052632, 0.2294245, 11.1, 93.8808307, 255926000.0, 276174000.0, 86293600.0, 1335790000.0], [0.105263, 0.2011808, 11.1, 101.656706, 194351000.0, 248346000.0, 59549000.0, 1402460000.0], [0.157895, 0.1785459, 11.1, 109.4325814, 132776000.0, 220517000.0, 32804400.0, 1469140000.0], [0.210526, 0.16, 11.1, 117.2084568, 71200400.0, 192688000.0, 6059830.0, 1535810000.0], [0.263158, 0.1648254, 9.5, 110.3578793, 61417700.0, 169974000.0, 5425020.0, 1447590000.0], [0.315789, 0.1701474, 7.9, 103.5073018, 51635000.0, 147260000.0, 4790200.0, 1359370000.0], [0.368421, 0.1760468, 6.3, 96.6567243, 41852300.0, 124545000.0, 4155380.0, 1271150000.0], [0.421053, 0.1826232, 4.7, 89.8061468, 32069500.0, 101831000.0, 3520570.0, 1182930000.0], [0.473684, 0.19, 3.1, 82.9555694, 22286800.0, 79116900.0, 2885750.0, 1094710000.0], [0.526316, 0.1944457, 2.6, 74.1903779, 18539300.0, 67558100.0, 2423590.0, 975583000.0], [0.578947, 0.199507, 2.1, 65.4251864, 14791800.0, 55999300.0, 1961420.0, 856461000.0], [0.631579, 0.2053216, 1.6, 56.659995, 11044300.0, 44440600.0, 1499260.0, 737338000.0], [0.684211, 0.2120708, 1.1, 47.8948035, 7296740.0, 32881800.0, 1037100.0, 618216000.0], [0.736842, 0.22, 0.6, 39.1296121, 3549220.0, 21323100.0, 574933.0, 499093000.0], [0.789474, 0.22395, 0.48, 32.8539689, 2855340.0, 17598900.0, 472176.0, 415421000.0], [0.842105, 0.2286378, 0.36, 26.5783258, 2161460.0, 13874700.0, 369418.0, 331750000.0], [0.894737, 0.2342914, 0.24, 20.3026826, 1467580.0, 10150600.0, 266661.0, 248078000.0], [0.947368, 0.2412437, 0.12, 14.0270394, 773694.0, 6426410.0, 163904.0, 164406000.0], [1.0, 0.25, 0.0, 7.7513963, 79811.6, 2702250.0, 61146.4, 80734400.0]], "BldFl1Sh(4)_1": -2.0928, "HSSBrDT": 9999.9, "DT": 0.005, "BldFl1Sh(4)_2": -2.0928, "BldFl1Sh(4)_3": -2.0928, "TeetDOF": "False", "FurlFile": "unused", "AdjEdSt_1": 1.0, "BldCmnt_2": "FAST v7.02 blade file for turbine \"WP0.75A08V00\" (J. Rinker, Duke University, 30-Dec-15)", "AnalMode": 1.0, "CNST(9)": 0.213022441, "VS_SlPc": 9.9999e-06, "CompNoise": "False", "BlPitch(2)": 2.6, "TwSSM2Sh(6)": -18.76, "RPM2P_Order": 1, "PitchFile": "pitch.ipt", "GenEff": 95.0, "SIG_SySp": 9999.9, "SttsTime": 1.0, "TStart": 30.0, "BldFl2Sh(6)_3": -7.9422, "PreCone(3)": 0.0, "TeetSSSp": 0.0, "TwFAM1Sh(4)": -0.3653, "CNST(4)": 2.6, "RPM2PI_Order": 1, "PitchCmnt": "Pitch controller for turbine \"WP0.75A08V00\" (J. Rinker, Duke University, 30-Dec-15)", "DTTorSpr": 129646444.9, "BldEdgSh(4)_2": -7.7536, "GenModel": 1.0, "BldFl1Sh(3)_2": 1.9789, "BldFl1Sh(3)_3": 1.9789, "NacYawF": 0.0, "TwFAM2Sh(5)": 21.0894, "DTAero": 0.005, "TwrFADmp(1)": 3.435, "P2P_Num": [144.0, 0.0, 0.0], "OutList": ["\"WindVxi,WindVyi,WindVzi\"          \t- Wind-speed components\n", "\"OoPDefl1,IPDefl1,TipDzb1,TwrClrnc1\"\t- Blade 1 tip motions\n", "\"OoPDefl2,IPDefl2,TipDzb2,TwrClrnc2\"\t- Blade 2 tip motions\n", "\"OoPDefl3,IPDefl3,TipDzb3,TwrClrnc3\"\t- Blade 3 tip motions\n", "\"BldPitch1,BldPitch2,BldPitch3\"         - Blade pitch motions\n", "\"Azimuth,RotSpeed,RotAccel\"\t\t- LSS motion\n", "\"GenSpeed,GenAccel,TSR\"\t\t\t- HSS motion\n", "\"TTDspFA,TTDspSS,TTDspAx\"\t\t- Towertop motions\n", "\"YawBrTAxp,YawBrTAyp,YawBrTAzp\"\t\t- Towertop accelerations\n", "\"RootFzb1,RootMIP1,RootMOoP1,RootMzb1\"\t- Blade 1 root loads (1/2)\n", "\"RootMEdg1,RootMFlp1\"\t\t\t- Blade 1 root loads (2/2)\n", "\"RootFzb2,RootMIP2,RootMOoP2,RootMzb2\"\t- Blade 2 root loads (1/2)\n", "\"RootMEdg2,RootMFlp2\"\t\t\t- Blade 2 root loads (2/2)\n", "\"RootFzb3,RootMIP3,RootMOoP3,RootMzb3\"\t- Blade 3 root loads (1/2)\n", "\"RootMEdg3,RootMFlp3\"\t\t\t- Blade 3 root loads (2/2)\n", "\"RotThrust,LSSGagFya,LSSGagFza\"\t\t- Hub and rotor loads (1/3)\n", "\"LSSGagFys,LSSGagFzs,RotTorq,CThrstArm\"\t- Hub and rotor loads (2/3)\n", "\"LSShftPwr,LSShftCq,LSShftCp,LSShftCt\"\t- Hub and rotor loads (3/3)\n", "\"HSShftTq,HSShftPwr,HSShftCq,HSShftCp\"\t- Generator and HSS loads (1/2)\n", "\"GenTq,GenPwr,GenCq,GenCp\"\t\t- Generator and HSS loads (2/2)\n", "\"YawBrFzp,YawBrMzp\"\t\t\t- Tower top yaw-bearing loads\n", "\"TwrBsFxt,TwrBsFyt,TwrBsFzt\"\t\t- Tower base loads (1/2)\n", "\"TwrBsMxt,TwrBsMyt,TwrBsMzt\"\t\t- Tower base loads (2/2)\n"], "BldFl2Sh(4)_2": -1.6204, "YawNeut": 0.0, "Azimuth": 0.0, "HLModel": "PRANDtl", "NBlGages": 0.0, "AdjEdSt_3": 1.0, "NacCMzn": 1.204328, "TpBrDT": 0.0, "SIG_RtTq": 9999.9, "TwSSM1Sh(4)": -0.3653, "BldCmnt_1": "FAST v7.02 blade file for turbine \"WP0.75A08V00\" (J. Rinker, Duke University, 30-Dec-15)", "OoPDefl": 0.0, "BldCmnt_3": "FAST v7.02 blade file for turbine \"WP0.75A08V00\" (J. Rinker, Duke University, 30-Dec-15)", "BldFl1Sh(5)_2": 1.8661, "BldFl1Sh(5)_3": 1.8661, "HubIner": 5160.954459, "BldFl1Sh(5)_1": 1.8661, "Twr2Shft": 1.33, "TeetSStP": 0.0, "CNST(8)": 0.523598776, "BldSched_1": [[0.0, 0.25, 11.1, 1181.9474018, 2362410000.0, 2362410000.0, 815591000.0, 10326600000.0], [0.021053, 0.25, 11.1, 89.2153055, 292872000.0, 292872000.0, 102340000.0, 1295780000.0], [0.052632, 0.2294245, 11.1, 93.8808307, 255926000.0, 276174000.0, 86293600.0, 1335790000.0], [0.105263, 0.2011808, 11.1, 101.656706, 194351000.0, 248346000.0, 59549000.0, 1402460000.0], [0.157895, 0.1785459, 11.1, 109.4325814, 132776000.0, 220517000.0, 32804400.0, 1469140000.0], [0.210526, 0.16, 11.1, 117.2084568, 71200400.0, 192688000.0, 6059830.0, 1535810000.0], [0.263158, 0.1648254, 9.5, 110.3578793, 61417700.0, 169974000.0, 5425020.0, 1447590000.0], [0.315789, 0.1701474, 7.9, 103.5073018, 51635000.0, 147260000.0, 4790200.0, 1359370000.0], [0.368421, 0.1760468, 6.3, 96.6567243, 41852300.0, 124545000.0, 4155380.0, 1271150000.0], [0.421053, 0.1826232, 4.7, 89.8061468, 32069500.0, 101831000.0, 3520570.0, 1182930000.0], [0.473684, 0.19, 3.1, 82.9555694, 22286800.0, 79116900.0, 2885750.0, 1094710000.0], [0.526316, 0.1944457, 2.6, 74.1903779, 18539300.0, 67558100.0, 2423590.0, 975583000.0], [0.578947, 0.199507, 2.1, 65.4251864, 14791800.0, 55999300.0, 1961420.0, 856461000.0], [0.631579, 0.2053216, 1.6, 56.659995, 11044300.0, 44440600.0, 1499260.0, 737338000.0], [0.684211, 0.2120708, 1.1, 47.8948035, 7296740.0, 32881800.0, 1037100.0, 618216000.0], [0.736842, 0.22, 0.6, 39.1296121, 3549220.0, 21323100.0, 574933.0, 499093000.0], [0.789474, 0.22395, 0.48, 32.8539689, 2855340.0, 17598900.0, 472176.0, 415421000.0], [0.842105, 0.2286378, 0.36, 26.5783258, 2161460.0, 13874700.0, 369418.0, 331750000.0], [0.894737, 0.2342914, 0.24, 20.3026826, 1467580.0, 10150600.0, 266661.0, 248078000.0], [0.947368, 0.2412437, 0.12, 14.0270394, 773694.0, 6426410.0, 163904.0, 164406000.0], [1.0, 0.25, 0.0, 7.7513963, 79811.6, 2702250.0, 61146.4, 80734400.0]], "BlPitch(3)": 2.6, "BldSched_3": [[0.0, 0.25, 11.1, 1181.9474018, 2362410000.0, 2362410000.0, 815591000.0, 10326600000.0], [0.021053, 0.25, 11.1, 89.2153055, 292872000.0, 292872000.0, 102340000.0, 1295780000.0], [0.052632, 0.2294245, 11.1, 93.8808307, 255926000.0, 276174000.0, 86293600.0, 1335790000.0], [0.105263, 0.2011808, 11.1, 101.656706, 194351000.0, 248346000.0, 59549000.0, 1402460000.0], [0.157895, 0.1785459, 11.1, 109.4325814, 132776000.0, 220517000.0, 32804400.0, 1469140000.0], [0.210526, 0.16, 11.1, 117.2084568, 71200400.0, 192688000.0, 6059830.0, 1535810000.0], [0.263158, 0.1648254, 9.5, 110.3578793, 61417700.0, 169974000.0, 5425020.0, 1447590000.0], [0.315789, 0.1701474, 7.9, 103.5073018, 51635000.0, 147260000.0, 4790200.0, 1359370000.0], [0.368421, 0.1760468, 6.3, 96.6567243, 41852300.0, 124545000.0, 4155380.0, 1271150000.0], [0.421053, 0.1826232, 4.7, 89.8061468, 32069500.0, 101831000.0, 3520570.0, 1182930000.0], [0.473684, 0.19, 3.1, 82.9555694, 22286800.0, 79116900.0, 2885750.0, 1094710000.0], [0.526316, 0.1944457, 2.6, 74.1903779, 18539300.0, 67558100.0, 2423590.0, 975583000.0], [0.578947, 0.199507, 2.1, 65.4251864, 14791800.0, 55999300.0, 1961420.0, 856461000.0], [0.631579, 0.2053216, 1.6, 56.659995, 11044300.0, 44440600.0, 1499260.0, 737338000.0], [0.684211, 0.2120708, 1.1, 47.8948035, 7296740.0, 32881800.0, 1037100.0, 618216000.0], [0.736842, 0.22, 0.6, 39.1296121, 3549220.0, 21323100.0, 574933.0, 499093000.0], [0.789474, 0.22395, 0.48, 32.8539689, 2855340.0, 17598900.0, 472176.0, 415421000.0], [0.842105, 0.2286378, 0.36, 26.5783258, 2161460.0, 13874700.0, 369418.0, 331750000.0], [0.894737, 0.2342914, 0.24, 20.3026826, 1467580.0, 10150600.0, 266661.0, 248078000.0], [0.947368, 0.2412437, 0.12, 14.0270394, 773694.0, 6426410.0, 163904.0, 164406000.0], [1.0, 0.25, 0.0, 7.7513963, 79811.6, 2702250.0, 61146.4, 80734400.0]], "NBlInpSt_2": 21.0, "BldGagNd": 0.0, "BldFl1Sh(2)_1": 0.0734, "BldFl2Sh(3)_1": -3.0061, "DTTorDmp": 278494.4554, "AdjEdSt_2": 1.0, "SIG_PORt": 9999.9, "YawDamp": 0.0, "BldFl1Sh(2)_2": 0.0734, "TwFAM1Sh(3)": 0.3408}