{"PreCone(1)": 0.0, "BldEdgSh(2)_3": 0.3379, "BldFl2Sh(5)_3": 10.298, "BldFl2Sh(5)_2": 10.298, "BldFl2Sh(5)_1": 10.298, "ShadHWid": 9999.9, "NBlInpSt_1": 21.0, "NBlInpSt_3": 21.0, "TEC_RRes": 9999.9, "TabDelim": "True", "VS_Rgn2K": 0.0086178765, "TwrFile": "WP5.0A04V00_Tower.dat", "NacCMyn": 0.0, "NcIMUxn": 0.0, "AdjBlMs_3": 1.0, "AdjBlMs_2": 1.0, "AdjFASt": 1.0, "VSContrl": 1.0, "TwSSDOF1": "True", "TPitManE(2)": 9999.9, "GenDOF": "True", "LinFile": "WP_Template_Linear.dat", "BlPitchF(3)": 2.6, "BldFl2Sh(3)_3": -3.6448, "Delta3": 0.0, "YawBrMass": 0.0, "RPM2PI_Num": [2.22, 0.0], "THSSBrDp": 9999.9, "TwSSM1Sh(5)": 1.2015, "SIG_SlPc": 9999.9, "NTwInpSt": 10.0, "StallMod": "BEDDOES", "T_Shad_Refpt": 9999.9, "TwrSSDmp(1)": 3.435, "GBRevers": "False", "PtfmFile": "unused", "BldFlDmp(1)_3": 3.882, "TPitManS(1)": 9999.9, "CNST(1)": -1.0, "BldFlDmp(1)_1": 3.882, "YawDOF": "False", "FlStTunr(2)_2": 1.0, "TEC_MR": 9999.9, "AdjTwMa": 1.0, "AdjFlSt_2": 1.0, "GenIner": 438.854523, "TwFADOF1": "True", "TwFAM2Sh(6)": -40.6368, "TwFADOF2": "True", "NacYaw": 0.0, "NumFoil": 4, "GBoxEff": 100.0, "YawSpr": 0.0, "BldFl2Sh(4)_1": 1.215, "BldFlDmp(1)_2": 3.882, "BldFl2Sh(4)_3": 1.215, "BldEdgSh(3)_3": 4.0433, "TwSSM1Sh(3)": 0.5282, "BldEdgSh(3)_1": 4.0433, "NacCMxn": -0.32557, "TeetDefl": 0.0, "ShftTilt": -5.0, "AirDens": 1.225, "TEC_VLL": 9999.9, "FlStTunr(2)_1": 1.0, "TPitManE(3)": 9999.9, "ShftGagL": 0.0, "YCMode": 0.0, "NTwGages": 0.0, "BldEdgSh(4)_3": -8.5067, "FlStTunr(1)_3": 1.0, "SumPrint": "False", "TMax": 630.0, "BldFl2Sh(2)_2": -0.2728, "TwSSM1Sh(2)": 0.6667, "FlStTunr(1)_2": 1.0, "Echo": "False", "TwrSSDmp(2)": 3.435, "TeetDmp": 0.0, "TPitManS(2)": 9999.9, "NoiseFile": "unused", "CNST(3)": 0.3, "AdjBlMs_1": 1.0, "TTDspFA": 0.0, "AeroCent_2": "BlFract", "FlapDOF1": "True", "FlapDOF2": "True", "AeroCent_1": "BlFract", "AdjFlSt_3": 1.0, "TwrCmnt": "FAST v7.02 tower file for turbine \"WP5.0A04V00\" (J. Rinker, Duke University, 30-Dec-15)", "BldFlDmp(2)_3": 3.882, "BldFl1Sh(6)_2": -0.9325, "TwrShad": 0.0, "TYCOn": 9999.9, "GBRatio": 160.8495439, "TowerHt": 151.072, "Gravity": 9.80665, "FlStTunr(1)_1": 1.0, "BldFile(1)": "WP5.0A04V00_Blade.dat", "Furling": "False", "BldFl1Sh(6)_1": -0.9325, "RPM2P_Den": [1.0, 0.02], "TurbName": "WP5.0A04V00", "BldFl2Sh(2)_1": -0.2728, "BldFile(3)": "WP5.0A04V00_Blade.dat", "BldFl1Sh(3)_1": 2.6449, "TwSSM2Sh(3)": 14.8317, "CompAero": "True", "ADCmnt": "FAST v7.02 AeroDyn file for turbine \"WP5.0A04V00\" (J. Rinker, Duke University, 30-Dec-15)", "TYawManE": 9999.9, "CNST(7)": 0.045378561, "BldEdgSh(3)_2": 4.0433, "BldEdgSh(2)_2": 0.3379, "BldEdgSh(2)_1": 0.3379, "TBDepISp(3)": 9999.9, "BlPitchF(1)": 2.6, "FlStTunr(2)_3": 1.0, "FoilNm": ["cylinder.dat", "s818_2703.dat", "s825_2103.dat", "s826_1603.dat"], "RPM2PI_Den": [0.0, 1.0], "TYawManS": 9999.9, "TipMass(3)": 0.0, "GenTiStr": "True", "TwSSDOF2": "True", "GenTiStp": "True", "TwSSM2Sh(2)": -21.1687, "SSStTunr(2)": 1.0, "UndSling": 0.0, "TPitManS(3)": 9999.9, "TeetMod": 0.0, "PSpnElN": 1.0, "BldFlDmp(2)_2": 3.882, "RotSpeed": 23.1, "TTpBrDp(3)": 9999.9, "BldFlDmp(2)_1": 3.882, "AdjFlSt_1": 1.0, "FAStTunr(2)": 1.0, "TeetDmpP": 0.0, "P2P_Order": 2, "IndModel": "SWIRL", "TwFAM2Sh(3)": 14.8317, "AToler": 0.005, "InfModel": "EQUIL", "PtfmModel": 0.0, "TiDynBrk": 9999.9, "NcIMUyn": 0.0, "BldFl1Sh(2)_3": 0.1044, "DynBrkFi": "unused", "TwFAM1Sh(2)": 0.6667, "NumBl": 3.0, "HubRad": 3.2, "TwSSM2Sh(5)": 76.6729, "TwrSched": [[0.0, 9401.518339, 2949313620000.0, 2949313620000.0, 2268702780000.0, 228122981000.0], [0.1111111, 8269.715271, 2278019360000.0, 2278019360000.0, 1752322590000.0, 200660364000.0], [0.2222222, 7210.463054, 1728413820000.0, 1728413820000.0, 1329549090000.0, 174958157000.0], [0.3333333, 6223.761689, 1284818870000.0, 1284818870000.0, 988322204000.0, 151016359000.0], [0.4444444, 5309.611176, 932637954000.0, 932637954000.0, 717413811000.0, 128834969000.0], [0.5555556, 4468.011515, 658356144000.0, 658356144000.0, 506427803000.0, 108413989000.0], [0.6666667, 3698.962705, 449540087000.0, 449540087000.0, 345800067000.0, 89753417200.0], [0.7777778, 3002.464746, 294838031000.0, 294838031000.0, 226798486000.0, 72853254400.0], [0.8888889, 2378.51764, 183979818000.0, 183979818000.0, 141522937000.0, 57713500500.0], [1.0, 1827.121385, 107776886000.0, 107776886000.0, 82905297100.0, 44334155500.0]], "EdgeDOF": "True", "TBDepISp(2)": 9999.9, "CalcBMode_3": "False", "TwrFADmp(2)": 3.435, "P2P_Den": [21.9727, 7.5, 1.0], "TipMass(2)": 0.0, "TLModel": "PRANDtl", "CNST(11)": 0.0, "TEC_SRes": 9999.9, "RatedPwr": 5000000.0, "TurbDir": "C:\\Users\\jrinker\\Documents\\GitHub\\dissertation\\FAST_models\\WindPACT\\code\\templates", "ADAMSFile": "WP_Template_ADAMS.dat", "TwSSM2Sh(4)": -28.6991, "OverHang": -6.0, "BldFile(2)": "WP5.0A04V00_Blade.dat", "SpdGenOn": 9999.9, "NacYIner": 739595.805444, "CalcTMode": "False", "AeroCent_3": "BlFract", "FAStTunr(1)": 1.0, "TeetHSSp": 0.0, "BldEdDmp(1)_3": 5.9, "IPDefl": 0.0, "AzimB1Up": 0.0, "TA2P_Order": 0, "TwFAM2Sh(2)": -21.1687, "BldNodes": 15.0, "BldEdDmp(1)_2": 5.9, "TTpBrDp(1)": 9999.9, "TwrNodes": 10.0, "TEC_SLR": 9999.9, "TwSSM1Sh(6)": -0.6305, "BldFl2Sh(2)_3": -0.2728, "DrTrDOF": "True", "TBDrConD": 0.0, "TA2P_Num": [9.64, 1.4], "CalcBMode_1": "False", "CalcBMode_2": "False", "TPitManE(1)": 9999.9, "TwrGagNd": 0.0, "TeetHStP": 0.0, "OutFileFmt": 1.0, "BldEdgSh(6)_3": -2.7863, "TBDepISp(1)": 9999.9, "NacMass": 270668.709138, "HSSBrTqF": 9999.9, "TwrRBHt": 0.0, "TwFAM1Sh(6)": -0.6305, "NCSNT": 11.0, "PCMode": 1.0, "TipMass(1)": 0.0, "TipRad": 64.0, "ADFile": "WP5.0A04V00_AD.ipt", "TBDrConN": 0.0, "ADSched": [[5.2266666667, 11.1, 4.053333333, 3.5642551, 1.0, "NOPRINT"], [9.28, 11.1, 4.053333333, 4.1495428, 2.0, "NOPRINT"], [13.3333333333, 11.1, 4.053333333, 4.7348305, 2.0, "NOPRINT"], [17.3866666667, 10.4066667, 4.053333333, 5.0163813, 2.0, "NOPRINT"], [21.44, 8.38, 4.053333333, 4.7138227, 2.0, "NOPRINT"], [25.4933333333, 6.3533333, 4.053333333, 4.4112641, 2.0, "NOPRINT"], [29.5466666667, 4.3266667, 4.053333333, 4.1087054, 2.0, "NOPRINT"], [33.6, 2.85, 4.053333333, 3.8061468, 3.0, "NOPRINT"], [37.6533333333, 2.2166667, 4.053333333, 3.5035882, 3.0, "NOPRINT"], [41.7066666667, 1.5833333, 4.053333333, 3.2010295, 3.0, "NOPRINT"], [45.76, 0.95, 4.053333333, 2.8984709, 3.0, "NOPRINT"], [49.8133333333, 0.532, 4.053333333, 2.6094708, 3.0, "NOPRINT"], [53.8666666667, 0.38, 4.053333333, 2.3372195, 3.0, "NOPRINT"], [57.92, 0.228, 4.053333333, 2.0649682, 4.0, "NOPRINT"], [61.9733333333, 0.076, 4.053333333, 1.792717, 4.0, "NOPRINT"]], "TEC_RLR": 9999.9, "CNST(5)": 90.0, "TEC_NPol": 9998.0, "KinVisc": 1.4639e-05, "HubMass": 125969.622346, "BldFl2Sh(3)_2": -3.6448, "BldFl2Sh(6)_2": -6.5955, "VS_RtGnSp": 1800.0, "WindFile": "{:s}", "BldFl2Sh(6)_1": -6.5955, "CNST(6)": 0.025, "BlPitchF(2)": 2.6, "RPM2P_Num": [5.14, 0.08], "BldEdgSh(5)_1": 7.9119, "TEC_Freq": 9999.9, "BldEdgSh(5)_3": 7.9119, "BldEdgSh(5)_2": 7.9119, "TeetCDmp": 0.0, "TMassDen": "HtFract", "TA2P_Den": [0.358, 1.0], "AdjSSSt": 1.0, "CNST(10)": -0.5, "TTpBrDp(2)": 9999.9, "TTDspSS": 0.0, "BldFl1Sh(6)_3": -0.9325, "BldEdgSh(4)_1": -8.5067, "BlPitch(1)": 2.6, "TPCOn": 1.0, "TimGenOn": 0.0, "UseCm": "NO_CM", "NcIMUzn": 0.0, "HH": 154.52293445648596, "TimGenOf": 9999.9, "BldEdDmp(1)_1": 5.9, "TwFAM1Sh(5)": 1.2015, "DecFact": 10.0, "CNST(2)": 11.19058194, "PreCone(2)": 0.0, "TwFAM2Sh(4)": -28.6991, "FASTCmnt1": "FAST v7.02 input file for turbine \"WP5.0A04V00\"", "BldEdgSh(6)_1": -2.7863, "BldEdgSh(6)_2": -2.7863, "FASTCmnt2": "Generated by J. Rinker (Duke University) on 30-Dec-15 based on WindPACT Excel input files", "SysUnits": "SI", "SSStTunr(1)": 1.0, "HubCM": 0.0, "ADAMSPrep": 1.0, "CntrlRgn": 3.0, "HSSBrMode": 1.0, "OutFmt": "ES10.3E2", "VS_RtTq": 27921.919841, "BldSched_2": [[0.0, 0.25, 11.1, 3708.4116473, 63720700000.0, 63720700000.0, 22057700000.0, 42582900000.0], [0.021053, 0.25, 11.1, 622.3231717, 14036800000.0, 14036800000.0, 4904990000.0, 9469180000.0], [0.052632, 0.2294309, 11.1, 632.6693994, 12397900000.0, 13799300000.0, 4111710000.0, 9414560000.0], [0.105263, 0.2011898, 11.1, 649.9131123, 9666350000.0, 13403400000.0, 2789570000.0, 9323510000.0], [0.157895, 0.1785518, 11.1, 667.1568251, 6934820000.0, 13007500000.0, 1467440000.0, 9232470000.0], [0.210526, 0.16, 11.1, 684.400538, 4203290000.0, 12611600000.0, 145304000.0, 9141430000.0], [0.263158, 0.1648255, 9.5, 650.7744883, 3566080000.0, 10597300000.0, 127815000.0, 8692880000.0], [0.315789, 0.1701476, 7.9, 617.1484387, 2928880000.0, 8583080000.0, 110327000.0, 8244330000.0], [0.368421, 0.1760471, 6.3, 583.522389, 2291670000.0, 6568830000.0, 92838200.0, 7795780000.0], [0.421053, 0.1826234, 4.7, 549.8963394, 1654470000.0, 4554580000.0, 75349600.0, 7347240000.0], [0.473684, 0.19, 3.1, 516.2702897, 1017270000.0, 2540320000.0, 57861100.0, 6898690000.0], [0.526316, 0.194445, 2.6, 458.0476733, 845657000.0, 2154340000.0, 48609900.0, 6100410000.0], [0.578947, 0.199506, 2.1, 399.8250569, 674049000.0, 1768360000.0, 39358700.0, 5302130000.0], [0.631579, 0.2053203, 1.6, 341.6024405, 502441000.0, 1382380000.0, 30107600.0, 4503850000.0], [0.684211, 0.2120699, 1.1, 283.3798242, 330832000.0, 996396000.0, 20856400.0, 3705570000.0], [0.736842, 0.22, 0.6, 225.1572078, 159224000.0, 610414000.0, 11605200.0, 2907290000.0], [0.789474, 0.22395, 0.48, 184.522982, 127691000.0, 499056000.0, 9531690.0, 2372980000.0], [0.842105, 0.2286378, 0.36, 143.8887563, 96158200.0, 387698000.0, 7458150.0, 1838660000.0], [0.894737, 0.2342915, 0.24, 103.2545306, 64625400.0, 276340000.0, 5384600.0, 1304350000.0], [0.947368, 0.2412437, 0.12, 62.6203049, 33092600.0, 164982000.0, 3311060.0, 770030000.0], [1.0, 0.25, 0.0, 21.9860792, 1559780.0, 53624400.0, 1237520.0, 235714000.0]], "BldFl1Sh(4)_1": -3.4286, "HSSBrDT": 9999.9, "DT": 0.005, "BldFl1Sh(4)_2": -3.4286, "BldFl1Sh(4)_3": -3.4286, "TeetDOF": "False", "FurlFile": "unused", "AdjEdSt_1": 1.0, "BldCmnt_2": "FAST v7.02 blade file for turbine \"WP5.0A04V00\" (J. Rinker, Duke University, 30-Dec-15)", "AnalMode": 1.0, "CNST(9)": 0.213022441, "VS_SlPc": 9.9999e-06, "CompNoise": "False", "BlPitch(2)": 2.6, "TwSSM2Sh(6)": -40.6368, "RPM2P_Order": 1, "PitchFile": "pitch.ipt", "GenEff": 95.0, "SIG_SySp": 9999.9, "SttsTime": 1.0, "TStart": 30.0, "BldFl2Sh(6)_3": -6.5955, "PreCone(3)": 0.0, "TeetSSSp": 0.0, "TwFAM1Sh(4)": -0.7659, "CNST(4)": 2.6, "RPM2PI_Order": 1, "PitchCmnt": "Pitch controller for turbine \"WP5.0A04V00\" (J. Rinker, Duke University, 30-Dec-15)", "DTTorSpr": 2300000000.0, "BldEdgSh(4)_2": -8.5067, "GenModel": 1.0, "BldFl1Sh(3)_2": 2.6449, "BldFl1Sh(3)_3": 2.6449, "NacYawF": 0.0, "TwFAM2Sh(5)": 76.6729, "DTAero": 0.005, "TwrFADmp(1)": 3.435, "P2P_Num": [21.9727, 0.0, 0.0], "OutList": ["\"WindVxi,WindVyi,WindVzi\"          \t- Wind-speed components\n", "\"OoPDefl1,IPDefl1,TipDzb1,TwrClrnc1\"\t- Blade 1 tip motions\n", "\"OoPDefl2,IPDefl2,TipDzb2,TwrClrnc2\"\t- Blade 2 tip motions\n", "\"OoPDefl3,IPDefl3,TipDzb3,TwrClrnc3\"\t- Blade 3 tip motions\n", "\"BldPitch1,BldPitch2,BldPitch3\"         - Blade pitch motions\n", "\"Azimuth,RotSpeed,RotAccel\"\t\t- LSS motion\n", "\"GenSpeed,GenAccel,TSR\"\t\t\t- HSS motion\n", "\"TTDspFA,TTDspSS,TTDspAx\"\t\t- Towertop motions\n", "\"YawBrTAxp,YawBrTAyp,YawBrTAzp\"\t\t- Towertop accelerations\n", "\"RootFzb1,RootMIP1,RootMOoP1,RootMzb1\"\t- Blade 1 root loads (1/2)\n", "\"RootMEdg1,RootMFlp1\"\t\t\t- Blade 1 root loads (2/2)\n", "\"RootFzb2,RootMIP2,RootMOoP2,RootMzb2\"\t- Blade 2 root loads (1/2)\n", "\"RootMEdg2,RootMFlp2\"\t\t\t- Blade 2 root loads (2/2)\n", "\"RootFzb3,RootMIP3,RootMOoP3,RootMzb3\"\t- Blade 3 root loads (1/2)\n", "\"RootMEdg3,RootMFlp3\"\t\t\t- Blade 3 root loads (2/2)\n", "\"RotThrust,LSSGagFya,LSSGagFza\"\t\t- Hub and rotor loads (1/3)\n", "\"LSSGagFys,LSSGagFzs,RotTorq,CThrstArm\"\t- Hub and rotor loads (2/3)\n", "\"LSShftPwr,LSShftCq,LSShftCp,LSShftCt\"\t- Hub and rotor loads (3/3)\n", "\"HSShftTq,HSShftPwr,HSShftCq,HSShftCp\"\t- Generator and HSS loads (1/2)\n", "\"GenTq,GenPwr,GenCq,GenCp\"\t\t- Generator and HSS loads (2/2)\n", "\"YawBrFzp,YawBrMzp\"\t\t\t- Tower top yaw-bearing loads\n", "\"TwrBsFxt,TwrBsFyt,TwrBsFzt\"\t\t- Tower base loads (1/2)\n", "\"TwrBsMxt,TwrBsMyt,TwrBsMzt\"\t\t- Tower base loads (2/2)\n"], "BldFl2Sh(4)_2": 1.215, "YawNeut": 0.0, "Azimuth": 0.0, "HLModel": "PRANDtl", "NBlGages": 0.0, "AdjEdSt_3": 1.0, "NacCMzn": 2.342901, "TpBrDT": 0.0, "SIG_RtTq": 9999.9, "TwSSM1Sh(4)": -0.7659, "BldCmnt_1": "FAST v7.02 blade file for turbine \"WP5.0A04V00\" (J. Rinker, Duke University, 30-Dec-15)", "OoPDefl": 0.0, "BldCmnt_3": "FAST v7.02 blade file for turbine \"WP5.0A04V00\" (J. Rinker, Duke University, 30-Dec-15)", "BldFl1Sh(5)_2": 2.6119, "BldFl1Sh(5)_3": 2.6119, "HubIner": 668484.970122, "BldFl1Sh(5)_1": 2.6119, "Twr2Shft": 2.928, "TeetSStP": 0.0, "CNST(8)": 0.523598776, "BldSched_1": [[0.0, 0.25, 11.1, 3708.4116473, 63720700000.0, 63720700000.0, 22057700000.0, 42582900000.0], [0.021053, 0.25, 11.1, 622.3231717, 14036800000.0, 14036800000.0, 4904990000.0, 9469180000.0], [0.052632, 0.2294309, 11.1, 632.6693994, 12397900000.0, 13799300000.0, 4111710000.0, 9414560000.0], [0.105263, 0.2011898, 11.1, 649.9131123, 9666350000.0, 13403400000.0, 2789570000.0, 9323510000.0], [0.157895, 0.1785518, 11.1, 667.1568251, 6934820000.0, 13007500000.0, 1467440000.0, 9232470000.0], [0.210526, 0.16, 11.1, 684.400538, 4203290000.0, 12611600000.0, 145304000.0, 9141430000.0], [0.263158, 0.1648255, 9.5, 650.7744883, 3566080000.0, 10597300000.0, 127815000.0, 8692880000.0], [0.315789, 0.1701476, 7.9, 617.1484387, 2928880000.0, 8583080000.0, 110327000.0, 8244330000.0], [0.368421, 0.1760471, 6.3, 583.522389, 2291670000.0, 6568830000.0, 92838200.0, 7795780000.0], [0.421053, 0.1826234, 4.7, 549.8963394, 1654470000.0, 4554580000.0, 75349600.0, 7347240000.0], [0.473684, 0.19, 3.1, 516.2702897, 1017270000.0, 2540320000.0, 57861100.0, 6898690000.0], [0.526316, 0.194445, 2.6, 458.0476733, 845657000.0, 2154340000.0, 48609900.0, 6100410000.0], [0.578947, 0.199506, 2.1, 399.8250569, 674049000.0, 1768360000.0, 39358700.0, 5302130000.0], [0.631579, 0.2053203, 1.6, 341.6024405, 502441000.0, 1382380000.0, 30107600.0, 4503850000.0], [0.684211, 0.2120699, 1.1, 283.3798242, 330832000.0, 996396000.0, 20856400.0, 3705570000.0], [0.736842, 0.22, 0.6, 225.1572078, 159224000.0, 610414000.0, 11605200.0, 2907290000.0], [0.789474, 0.22395, 0.48, 184.522982, 127691000.0, 499056000.0, 9531690.0, 2372980000.0], [0.842105, 0.2286378, 0.36, 143.8887563, 96158200.0, 387698000.0, 7458150.0, 1838660000.0], [0.894737, 0.2342915, 0.24, 103.2545306, 64625400.0, 276340000.0, 5384600.0, 1304350000.0], [0.947368, 0.2412437, 0.12, 62.6203049, 33092600.0, 164982000.0, 3311060.0, 770030000.0], [1.0, 0.25, 0.0, 21.9860792, 1559780.0, 53624400.0, 1237520.0, 235714000.0]], "BlPitch(3)": 2.6, "BldSched_3": [[0.0, 0.25, 11.1, 3708.4116473, 63720700000.0, 63720700000.0, 22057700000.0, 42582900000.0], [0.021053, 0.25, 11.1, 622.3231717, 14036800000.0, 14036800000.0, 4904990000.0, 9469180000.0], [0.052632, 0.2294309, 11.1, 632.6693994, 12397900000.0, 13799300000.0, 4111710000.0, 9414560000.0], [0.105263, 0.2011898, 11.1, 649.9131123, 9666350000.0, 13403400000.0, 2789570000.0, 9323510000.0], [0.157895, 0.1785518, 11.1, 667.1568251, 6934820000.0, 13007500000.0, 1467440000.0, 9232470000.0], [0.210526, 0.16, 11.1, 684.400538, 4203290000.0, 12611600000.0, 145304000.0, 9141430000.0], [0.263158, 0.1648255, 9.5, 650.7744883, 3566080000.0, 10597300000.0, 127815000.0, 8692880000.0], [0.315789, 0.1701476, 7.9, 617.1484387, 2928880000.0, 8583080000.0, 110327000.0, 8244330000.0], [0.368421, 0.1760471, 6.3, 583.522389, 2291670000.0, 6568830000.0, 92838200.0, 7795780000.0], [0.421053, 0.1826234, 4.7, 549.8963394, 1654470000.0, 4554580000.0, 75349600.0, 7347240000.0], [0.473684, 0.19, 3.1, 516.2702897, 1017270000.0, 2540320000.0, 57861100.0, 6898690000.0], [0.526316, 0.194445, 2.6, 458.0476733, 845657000.0, 2154340000.0, 48609900.0, 6100410000.0], [0.578947, 0.199506, 2.1, 399.8250569, 674049000.0, 1768360000.0, 39358700.0, 5302130000.0], [0.631579, 0.2053203, 1.6, 341.6024405, 502441000.0, 1382380000.0, 30107600.0, 4503850000.0], [0.684211, 0.2120699, 1.1, 283.3798242, 330832000.0, 996396000.0, 20856400.0, 3705570000.0], [0.736842, 0.22, 0.6, 225.1572078, 159224000.0, 610414000.0, 11605200.0, 2907290000.0], [0.789474, 0.22395, 0.48, 184.522982, 127691000.0, 499056000.0, 9531690.0, 2372980000.0], [0.842105, 0.2286378, 0.36, 143.8887563, 96158200.0, 387698000.0, 7458150.0, 1838660000.0], [0.894737, 0.2342915, 0.24, 103.2545306, 64625400.0, 276340000.0, 5384600.0, 1304350000.0], [0.947368, 0.2412437, 0.12, 62.6203049, 33092600.0, 164982000.0, 3311060.0, 770030000.0], [1.0, 0.25, 0.0, 21.9860792, 1559780.0, 53624400.0, 1237520.0, 235714000.0]], "NBlInpSt_2": 21.0, "BldGagNd": 0.0, "BldFl1Sh(2)_1": 0.1044, "BldFl2Sh(3)_1": -3.6448, "DTTorDmp": 14900000.0, "AdjEdSt_2": 1.0, "SIG_PORt": 9999.9, "YawDamp": 0.0, "BldFl1Sh(2)_2": 0.1044, "TwFAM1Sh(3)": 0.5282}