{"PreCone(1)": 0.0, "BldEdgSh(2)_3": 0.3044, "BldFl2Sh(5)_3": 13.8375, "BldFl2Sh(5)_2": 13.8375, "BldFl2Sh(5)_1": 13.8375, "ShadHWid": 9999.9, "NBlInpSt_1": 21.0, "NBlInpSt_3": 21.0, "TEC_RRes": 9999.9, "TabDelim": "True", "VS_Rgn2K": 0.0086178765, "TwrFile": "WP5.0A04V00_Tower.dat", "NacCMyn": 0.0, "NcIMUxn": 0.0, "AdjBlMs_3": 1.0, "AdjBlMs_2": 1.0, "AdjFASt": 1.0, "VSContrl": 1.0, "TwSSDOF1": "True", "TPitManE(2)": 9999.9, "GenDOF": "True", "LinFile": "WP_Template_Linear.dat", "BlPitchF(3)": 2.6, "BldFl2Sh(3)_3": -3.0048, "Delta3": 0.0, "YawBrMass": 0.0, "RPM2PI_Num": [2.22, 0.0], "THSSBrDp": 9999.9, "TwSSM1Sh(5)": 0.4347, "SIG_SlPc": 9999.9, "NTwInpSt": 10.0, "StallMod": "BEDDOES", "T_Shad_Refpt": 9999.9, "TwrSSDmp(1)": 3.435, "GBRevers": "False", "PtfmFile": "unused", "BldFlDmp(1)_3": 3.882, "TPitManS(1)": 9999.9, "CNST(1)": -1.0, "BldFlDmp(1)_1": 3.882, "YawDOF": "False", "FlStTunr(2)_2": 1.0, "TEC_MR": 9999.9, "AdjTwMa": 1.0, "AdjFlSt_2": 1.0, "GenIner": 438.854523, "TwFADOF1": "True", "TwFAM2Sh(6)": -18.6557, "TwFADOF2": "True", "NacYaw": 0.0, "NumFoil": 4.0, "GBoxEff": 100.0, "YawSpr": 0.0, "BldFl2Sh(4)_1": -1.625, "BldFlDmp(1)_2": 3.882, "BldFl2Sh(4)_3": -1.625, "BldEdgSh(3)_3": 3.8089, "TwSSM1Sh(3)": 0.3405, "BldEdgSh(3)_1": 3.8089, "NacCMxn": -0.32557, "TeetDefl": 0.0, "ShftTilt": -5.0, "AirDens": 1.225, "TEC_VLL": 9999.9, "FlStTunr(2)_1": 1.0, "TPitManE(3)": 9999.9, "ShftGagL": 0.0, "YCMode": 0.0, "NTwGages": 0.0, "BldEdgSh(4)_3": -7.7479, "FlStTunr(1)_3": 1.0, "SumPrint": "False", "TMax": 630.0, "BldFl2Sh(2)_2": -0.2631, "TwSSM1Sh(2)": 0.8565, "FlStTunr(1)_2": 1.0, "Echo": "False", "TwrSSDmp(2)": 3.435, "TeetDmp": 0.0, "TPitManS(2)": 9999.9, "NoiseFile": "unused", "CNST(3)": 0.3, "AdjBlMs_1": 1.0, "TTDspFA": 0.0, "AeroCent_2": "BlFract", "FlapDOF1": "True", "FlapDOF2": "True", "AeroCent_1": "BlFract", "AdjFlSt_3": 1.0, "TwrCmnt": "FAST v7.02 tower file for turbine \"WP0.75A08V00\" (JRinker, Duke University)", "BldFlDmp(2)_3": 3.882, "BldFl1Sh(6)_2": -0.8264, "TwrShad": 0.0, "TYCOn": 9999.9, "GBRatio": 160.8495439, "TowerHt": 151.072, "Gravity": 9.80665, "FlStTunr(1)_1": 1.0, "BldFile(1)": "WP_Template_Blade.dat", "Furling": "False", "BldFl1Sh(6)_1": -0.8264, "RPM2P_Den": [1.0, 0.02], "TurbName": "WP5.0A04V00", "BldFl2Sh(2)_1": -0.2631, "BldFile(3)": "WP_Template_Blade.dat", "BldFl1Sh(3)_1": 1.9794, "TwSSM2Sh(3)": 9.1047, "CompAero": "True", "ADCmnt": "FAST v7.02 AeroDyn file for turbine \"WP0.75A08V00\" (JRinker, Duke University)", "TYawManE": 9999.9, "CNST(7)": 0.045378561, "BldEdgSh(3)_2": 3.8089, "BldEdgSh(2)_2": 0.3044, "BldEdgSh(2)_1": 0.3044, "TBDepISp(3)": 9999.9, "BlPitchF(1)": 2.6, "FlStTunr(2)_3": 1.0, "FoilNm": ["cylinder", "s818_2703", "s825_2103", "s826_1603"], "RPM2PI_Den": [0.0, 1.0], "TYawManS": 9999.9, "TipMass(3)": 0.0, "GenTiStr": "True", "TwSSDOF2": "True", "GenTiStp": "True", "TwSSM2Sh(2)": -21.2343, "SSStTunr(2)": 1.0, "UndSling": 0.0, "TPitManS(3)": 9999.9, "TeetMod": 0.0, "PSpnElN": 1.0, "BldFlDmp(2)_2": 3.882, "RotSpeed": 23.1, "TTpBrDp(3)": 9999.9, "BldFlDmp(2)_1": 3.882, "AdjFlSt_1": 1.0, "FAStTunr(2)": 1.0, "TeetDmpP": 0.0, "P2P_Order": 2, "IndModel": "SWIRL", "TwFAM2Sh(3)": 9.1047, "AToler": 0.005, "InfModel": "EQUIL", "PtfmModel": 0.0, "TiDynBrk": 9999.9, "NcIMUyn": 0.0, "BldFl1Sh(2)_3": 0.0734, "DynBrkFi": "unused", "TwFAM1Sh(2)": 0.8565, "NumBl": 3.0, "HubRad": 3.2, "TwSSM2Sh(5)": 20.7935, "TwrSched": [[0.0, 9401.518339, 2949313620000.0, 2949313620000.0, 2268702780000.0, 228122981000.0], [0.1111111, 8269.715271, 2278019360000.0, 2278019360000.0, 1752322590000.0, 200660364000.0], [0.2222222, 7210.463054, 1728413820000.0, 1728413820000.0, 1329549090000.0, 174958157000.0], [0.3333333, 6223.761689, 1284818870000.0, 1284818870000.0, 988322204000.0, 151016359000.0], [0.4444444, 5309.611176, 932637954000.0, 932637954000.0, 717413811000.0, 128834969000.0], [0.5555556, 4468.011515, 658356144000.0, 658356144000.0, 506427803000.0, 108413989000.0], [0.6666667, 3698.962705, 449540087000.0, 449540087000.0, 345800067000.0, 89753417200.0], [0.7777778, 3002.464746, 294838031000.0, 294838031000.0, 226798486000.0, 72853254400.0], [0.8888889, 2378.51764, 183979818000.0, 183979818000.0, 141522937000.0, 57713500500.0], [1.0, 1827.121385, 107776886000.0, 107776886000.0, 82905297100.0, 44334155500.0]], "EdgeDOF": "True", "TBDepISp(2)": 9999.9, "CalcBMode_3": "False", "TwrFADmp(2)": 3.435, "P2P_Den": [21.9727, 7.5, 1.0], "TipMass(2)": 0.0, "TLModel": "PRANDtl", "CNST(11)": 0.0, "TEC_SRes": 9999.9, "TurbDir": "C:\\Users\\jrinker\\Documents\\GitHub\\dissertation\\FAST_models\\WindPACT\\code\\templates", "ADAMSFile": "WP_Template_ADAMS.dat", "TwSSM2Sh(4)": 10.9918, "OverHang": -6.0, "BldFile(2)": "WP_Template_Blade.dat", "SpdGenOn": 9999.9, "NacYIner": 739595.805444, "CalcTMode": "False", "AeroCent_3": "BlFract", "FAStTunr(1)": 1.0, "TeetHSSp": 0.0, "BldEdDmp(1)_3": 5.9, "IPDefl": 0.0, "AzimB1Up": 0.0, "TA2P_Order": 0, "TwFAM2Sh(2)": -21.2343, "BldNodes": 15.0, "BldEdDmp(1)_2": 5.9, "TTpBrDp(1)": 9999.9, "TwrNodes": 10.0, "TEC_SLR": 9999.9, "TwSSM1Sh(6)": -0.2671, "BldFl2Sh(2)_3": -0.2631, "DrTrDOF": "True", "TBDrConD": 0.0, "TA2P_Num": [9.64, 1.4], "CalcBMode_1": "False", "CalcBMode_2": "False", "TPitManE(1)": 9999.9, "TwrGagNd": 0.0, "TeetHStP": 0.0, "OutFileFmt": 1.0, "BldEdgSh(6)_3": -2.5527, "TBDepISp(1)": 9999.9, "NacMass": 270668.709138, "HSSBrTqF": 9999.9, "TwrRBHt": 0.0, "TwFAM1Sh(6)": -0.2671, "NCSNT": 11.0, "PCMode": 1.0, "TipMass(1)": 0.0, "TipRad": 64.0, "ADFile": "WP_Template_AD.ipt", "TBDrConN": 0.0, "ADSched": [[5.2266666667, 11.1, 4.053333333, 3.5642551, 1.0], [9.28, 11.1, 4.053333333, 4.1495428, 2.0], [13.3333333333, 11.1, 4.053333333, 4.7348305, 2.0], [17.3866666667, 10.4066667, 4.053333333, 5.0163813, 2.0], [21.44, 8.38, 4.053333333, 4.7138227, 2.0], [25.4933333333, 6.3533333, 4.053333333, 4.4112641, 2.0], [29.5466666667, 4.3266667, 4.053333333, 4.1087054, 2.0], [33.6, 2.85, 4.053333333, 3.8061468, 3.0], [37.6533333333, 2.2166667, 4.053333333, 3.5035882, 3.0], [41.7066666667, 1.5833333, 4.053333333, 3.2010295, 3.0], [45.76, 0.95, 4.053333333, 2.8984709, 3.0], [49.8133333333, 0.532, 4.053333333, 2.6094708, 3.0], [53.8666666667, 0.38, 4.053333333, 2.3372195, 3.0], [57.92, 0.228, 4.053333333, 2.0649682, 4.0], [61.9733333333, 0.076, 4.053333333, 1.792717, 4.0]], "TEC_RLR": 9999.9, "CNST(5)": 90.0, "TEC_NPol": 9998.0, "KinVisc": 1.4639e-05, "HubMass": 125969.622346, "BldFl2Sh(3)_2": -3.0048, "BldFl2Sh(6)_2": -7.9446, "VS_RtGnSp": 1800.0, "WindFile": "windfilename", "BldFl2Sh(6)_1": -7.9446, "CNST(6)": 0.025, "BlPitchF(2)": 2.6, "RPM2P_Num": [5.14, 0.08], "BldEdgSh(5)_1": 7.1872, "TEC_Freq": 9999.9, "BldEdgSh(5)_3": 7.1872, "BldEdgSh(5)_2": 7.1872, "TeetCDmp": 0.0, "TMassDen": "HtFract", "TA2P_Den": [0.358, 1.0], "AdjSSSt": 1.0, "CNST(10)": -0.5, "TTpBrDp(2)": 9999.9, "TTDspSS": 0.0, "BldFl1Sh(6)_3": -0.8264, "BldEdgSh(4)_1": -7.7479, "BlPitch(1)": 2.6, "TPCOn": 1.0, "TimGenOn": 0.0, "UseCm": "NO_CM", "NcIMUzn": 0.0, "HH": 60.2031, "TimGenOf": 9999.9, "BldEdDmp(1)_1": 5.9, "TwFAM1Sh(5)": 0.4347, "DecFact": 10.0, "CNST(2)": 11.19058194, "PreCone(2)": 0.0, "TwFAM2Sh(4)": 10.9918, "FASTCmnt1": "FAST v7.02 input file for turbine \"WP0.75A08V00\"", "BldEdgSh(6)_1": -2.5527, "BldEdgSh(6)_2": -2.5527, "FASTCmnt2": "Generated by Jennifer Rinker (Duke University) based on WindPACT Excel input files", "SysUnits": "SI", "SSStTunr(1)": 1.0, "HubCM": 0.0, "ADAMSPrep": 1.0, "CntrlRgn": 3.0, "HSSBrMode": 1.0, "OutFmt": "ES10.3E2", "VS_RtTq": 27921.919841, "BldSched_2": [[0.0, 0.25, 11.1, 1181.95, 2362400000.0, 2362400000.0, 815590000.0, 10327000000.0], [0.02105, 0.25, 11.1, 89.22, 292870000.0, 292870000.0, 102340000.0, 1295800000.0], [0.05263, 0.229, 11.1, 93.88, 255930000.0, 276170000.0, 86294000.0, 1335800000.0], [0.10526, 0.201, 11.1, 101.66, 194350000.0, 248350000.0, 59549000.0, 1402500000.0], [0.1579, 0.179, 11.1, 109.43, 132780000.0, 220520000.0, 32804000.0, 1469100000.0], [0.21053, 0.16, 11.1, 117.21, 71200000.0, 192690000.0, 6059800.0, 1535800000.0], [0.26316, 0.165, 9.5, 110.36, 61418000.0, 169970000.0, 5425000.0, 1447600000.0], [0.31579, 0.17, 7.9, 103.51, 51635000.0, 147260000.0, 4790200.0, 1359400000.0], [0.36842, 0.176, 6.3, 96.66, 41852000.0, 124540000.0, 4155400.0, 1271200000.0], [0.42105, 0.183, 4.7, 89.81, 32070000.0, 101830000.0, 3520600.0, 1182900000.0], [0.47368, 0.19, 3.1, 82.96, 22287000.0, 79117000.0, 2885800.0, 1094700000.0], [0.52632, 0.194, 2.6, 74.19, 18539000.0, 67558000.0, 2423600.0, 975580000.0], [0.57895, 0.2, 2.1, 65.43, 14792000.0, 55999000.0, 1961400.0, 856460000.0], [0.63158, 0.205, 1.6, 56.66, 11044000.0, 44441000.0, 1499300.0, 737340000.0], [0.68421, 0.212, 1.1, 47.89, 7296700.0, 32882000.0, 1037100.0, 618220000.0], [0.73684, 0.22, 0.6, 39.13, 3549200.0, 21323000.0, 574930.0, 499090000.0], [0.78947, 0.224, 0.48, 32.85, 2855300.0, 17599000.0, 472180.0, 415420000.0], [0.8421, 0.229, 0.36, 26.58, 2161500.0, 13875000.0, 369420.0, 331750000.0], [0.89474, 0.234, 0.24, 20.3, 1467600.0, 10151000.0, 266660.0, 248080000.0], [0.94737, 0.241, 0.12, 14.03, 773690.0, 6426400.0, 163900.0, 164410000.0], [1.0, 0.25, 0.0, 7.75, 79812.0, 2702200.0, 61146.0, 80734000.0]], "BldFl1Sh(4)_1": -2.0944, "HSSBrDT": 9999.9, "DT": 0.005, "BldFl1Sh(4)_2": -2.0944, "BldFl1Sh(4)_3": -2.0944, "TeetDOF": "False", "FurlFile": "unused", "AdjEdSt_1": 1.0, "BldCmnt_2": "FAST v7.02 blade file for turbine \"WP0.75A08V00\" (JRinker, Duke University)", "AnalMode": 1.0, "CNST(9)": 0.213022441, "VS_SlPc": 9.9999e-06, "CompNoise": "False", "BlPitch(2)": 2.6, "TwSSM2Sh(6)": -18.6557, "RPM2P_Order": 1, "PitchFile": "pitch.ipt", "GenEff": 95.0, "SIG_SySp": 9999.9, "SttsTime": 1.0, "TStart": 30.0, "BldFl2Sh(6)_3": -7.9446, "PreCone(3)": 0.0, "TeetSSSp": 0.0, "TwFAM1Sh(4)": -0.3646, "CNST(4)": 2.6, "RPM2PI_Order": 1, "PitchCmnt": " Speed controller for ADAMS WindPACT 15A1001 model April, 2002.", "DTTorSpr": 2300000000.0, "BldEdgSh(4)_2": -7.7479, "GenModel": 1.0, "BldFl1Sh(3)_2": 1.9794, "BldFl1Sh(3)_3": 1.9794, "NacYawF": 0.0, "TwFAM2Sh(5)": 20.7935, "DTAero": 0.005, "TwrFADmp(1)": 3.435, "P2P_Num": [21.9727, 0.0, 0.0], "OutList": ["\"WindVxi,WindVyi,WindVzi\"          \t- Wind-speed components\n", "\"OoPDefl1,IPDefl1,TipDzb1,TwrClrnc1\"\t- Blade 1 tip motions\n", "\"OoPDefl2,IPDefl2,TipDzb2,TwrClrnc2\"\t- Blade 2 tip motions\n", "\"OoPDefl3,IPDefl3,TipDzb3,TwrClrnc3\"\t- Blade 3 tip motions\n", "\"BldPitch1,BldPitch2,BldPitch3\"         - Blade pitch motions\n", "\"Azimuth,RotSpeed,RotAccel\"\t\t- LSS motion\n", "\"GenSpeed,GenAccel,TSR\"\t\t\t- HSS motion\n", "\"TTDspFA,TTDspSS,TTDspAx\"\t\t- Towertop motions\n", "\"YawBrTAxp,YawBrTAyp,YawBrTAzp\"\t\t- Towertop accelerations\n", "\"RootFzb1,RootMIP1,RootMOoP1,RootMzb1\"\t- Blade 1 root loads (1/2)\n", "\"RootMEdg1,RootMFlp1\"\t\t\t- Blade 1 root loads (2/2)\n", "\"RootFzb2,RootMIP2,RootMOoP2,RootMzb2\"\t- Blade 2 root loads (1/2)\n", "\"RootMEdg2,RootMFlp2\"\t\t\t- Blade 2 root loads (2/2)\n", "\"RootFzb3,RootMIP3,RootMOoP3,RootMzb3\"\t- Blade 3 root loads (1/2)\n", "\"RootMEdg3,RootMFlp3\"\t\t\t- Blade 3 root loads (2/2)\n", "\"RotThrust,LSSGagFya,LSSGagFza\"\t\t- Hub and rotor loads (1/3)\n", "\"LSSGagFys,LSSGagFzs,RotTorq,CThrstArm\"\t- Hub and rotor loads (2/3)\n", "\"LSShftPwr,LSShftCq,LSShftCp,LSShftCt\"\t- Hub and rotor loads (3/3)\n", "\"HSShftTq,HSShftPwr,HSShftCq,HSShftCp\"\t- Generator and HSS loads (1/2)\n", "\"GenTq,GenPwr,GenCq,GenCp\"\t\t- Generator and HSS loads (2/2)\n", "\"YawBrFzp,YawBrMzp\"\t\t\t- Tower top yaw-bearing loads\n", "\"TwrBsFxt,TwrBsFyt,TwrBsFzt\"\t\t- Tower base loads (1/2)\n", "\"TwrBsMxt,TwrBsMyt,TwrBsMzt\"\t\t- Tower base loads (2/2)\n"], "BldFl2Sh(4)_2": -1.625, "YawNeut": 0.0, "Azimuth": 0.0, "HLModel": "PRANDtl", "NBlGages": 0.0, "AdjEdSt_3": 1.0, "NacCMzn": 2.342901, "TpBrDT": 0.0, "SIG_RtTq": 9999.9, "TwSSM1Sh(4)": -0.3646, "BldCmnt_1": "FAST v7.02 blade file for turbine \"WP0.75A08V00\" (JRinker, Duke University)", "OoPDefl": 0.0, "BldCmnt_3": "FAST v7.02 blade file for turbine \"WP0.75A08V00\" (JRinker, Duke University)", "BldFl1Sh(5)_2": 1.8681, "BldFl1Sh(5)_3": 1.8681, "HubIner": 668484.970122, "BldFl1Sh(5)_1": 1.8681, "Twr2Shft": 2.928, "TeetSStP": 0.0, "CNST(8)": 0.523598776, "BldSched_1": [[0.0, 0.25, 11.1, 1181.95, 2362400000.0, 2362400000.0, 815590000.0, 10327000000.0], [0.02105, 0.25, 11.1, 89.22, 292870000.0, 292870000.0, 102340000.0, 1295800000.0], [0.05263, 0.229, 11.1, 93.88, 255930000.0, 276170000.0, 86294000.0, 1335800000.0], [0.10526, 0.201, 11.1, 101.66, 194350000.0, 248350000.0, 59549000.0, 1402500000.0], [0.1579, 0.179, 11.1, 109.43, 132780000.0, 220520000.0, 32804000.0, 1469100000.0], [0.21053, 0.16, 11.1, 117.21, 71200000.0, 192690000.0, 6059800.0, 1535800000.0], [0.26316, 0.165, 9.5, 110.36, 61418000.0, 169970000.0, 5425000.0, 1447600000.0], [0.31579, 0.17, 7.9, 103.51, 51635000.0, 147260000.0, 4790200.0, 1359400000.0], [0.36842, 0.176, 6.3, 96.66, 41852000.0, 124540000.0, 4155400.0, 1271200000.0], [0.42105, 0.183, 4.7, 89.81, 32070000.0, 101830000.0, 3520600.0, 1182900000.0], [0.47368, 0.19, 3.1, 82.96, 22287000.0, 79117000.0, 2885800.0, 1094700000.0], [0.52632, 0.194, 2.6, 74.19, 18539000.0, 67558000.0, 2423600.0, 975580000.0], [0.57895, 0.2, 2.1, 65.43, 14792000.0, 55999000.0, 1961400.0, 856460000.0], [0.63158, 0.205, 1.6, 56.66, 11044000.0, 44441000.0, 1499300.0, 737340000.0], [0.68421, 0.212, 1.1, 47.89, 7296700.0, 32882000.0, 1037100.0, 618220000.0], [0.73684, 0.22, 0.6, 39.13, 3549200.0, 21323000.0, 574930.0, 499090000.0], [0.78947, 0.224, 0.48, 32.85, 2855300.0, 17599000.0, 472180.0, 415420000.0], [0.8421, 0.229, 0.36, 26.58, 2161500.0, 13875000.0, 369420.0, 331750000.0], [0.89474, 0.234, 0.24, 20.3, 1467600.0, 10151000.0, 266660.0, 248080000.0], [0.94737, 0.241, 0.12, 14.03, 773690.0, 6426400.0, 163900.0, 164410000.0], [1.0, 0.25, 0.0, 7.75, 79812.0, 2702200.0, 61146.0, 80734000.0]], "BlPitch(3)": 2.6, "BldSched_3": [[0.0, 0.25, 11.1, 1181.95, 2362400000.0, 2362400000.0, 815590000.0, 10327000000.0], [0.02105, 0.25, 11.1, 89.22, 292870000.0, 292870000.0, 102340000.0, 1295800000.0], [0.05263, 0.229, 11.1, 93.88, 255930000.0, 276170000.0, 86294000.0, 1335800000.0], [0.10526, 0.201, 11.1, 101.66, 194350000.0, 248350000.0, 59549000.0, 1402500000.0], [0.1579, 0.179, 11.1, 109.43, 132780000.0, 220520000.0, 32804000.0, 1469100000.0], [0.21053, 0.16, 11.1, 117.21, 71200000.0, 192690000.0, 6059800.0, 1535800000.0], [0.26316, 0.165, 9.5, 110.36, 61418000.0, 169970000.0, 5425000.0, 1447600000.0], [0.31579, 0.17, 7.9, 103.51, 51635000.0, 147260000.0, 4790200.0, 1359400000.0], [0.36842, 0.176, 6.3, 96.66, 41852000.0, 124540000.0, 4155400.0, 1271200000.0], [0.42105, 0.183, 4.7, 89.81, 32070000.0, 101830000.0, 3520600.0, 1182900000.0], [0.47368, 0.19, 3.1, 82.96, 22287000.0, 79117000.0, 2885800.0, 1094700000.0], [0.52632, 0.194, 2.6, 74.19, 18539000.0, 67558000.0, 2423600.0, 975580000.0], [0.57895, 0.2, 2.1, 65.43, 14792000.0, 55999000.0, 1961400.0, 856460000.0], [0.63158, 0.205, 1.6, 56.66, 11044000.0, 44441000.0, 1499300.0, 737340000.0], [0.68421, 0.212, 1.1, 47.89, 7296700.0, 32882000.0, 1037100.0, 618220000.0], [0.73684, 0.22, 0.6, 39.13, 3549200.0, 21323000.0, 574930.0, 499090000.0], [0.78947, 0.224, 0.48, 32.85, 2855300.0, 17599000.0, 472180.0, 415420000.0], [0.8421, 0.229, 0.36, 26.58, 2161500.0, 13875000.0, 369420.0, 331750000.0], [0.89474, 0.234, 0.24, 20.3, 1467600.0, 10151000.0, 266660.0, 248080000.0], [0.94737, 0.241, 0.12, 14.03, 773690.0, 6426400.0, 163900.0, 164410000.0], [1.0, 0.25, 0.0, 7.75, 79812.0, 2702200.0, 61146.0, 80734000.0]], "NBlInpSt_2": 21.0, "BldGagNd": 0.0, "BldFl1Sh(2)_1": 0.0734, "BldFl2Sh(3)_1": -3.0048, "DTTorDmp": 14900000.0, "AdjEdSt_2": 1.0, "SIG_PORt": 9999.9, "YawDamp": 0.0, "BldFl1Sh(2)_2": 0.0734, "TwFAM1Sh(3)": 0.3405}