{"PreCone(1)": 0.0, "BldEdgSh(2)_3": 0.3121, "BldFl2Sh(5)_3": 12.9796, "BldFl2Sh(5)_2": 12.9796, "BldFl2Sh(5)_1": 12.9796, "ShadHWid": 9999.9, "NBlInpSt_1": 21.0, "NBlInpSt_3": 21.0, "TEC_RRes": 9999.9, "TabDelim": "True", "VS_Rgn2K": 0.0025853629, "TwrFile": "WP1.5A08V03_Tower.dat", "NacCMyn": 0.0, "NcIMUxn": 0.0, "AdjBlMs_3": 1.0, "AdjBlMs_2": 1.0, "AdjFASt": 1.0, "VSContrl": 1.0, "TwSSDOF1": "True", "TPitManE(2)": 9999.9, "GenDOF": "True", "LinFile": "WP_Template_Linear.dat", "BlPitchF(3)": 2.6, "BldFl2Sh(3)_3": -3.1596, "Delta3": 0.0, "YawBrMass": 0.0, "RPM2PI_Num": [2.22, 0.0], "THSSBrDp": 9999.9, "TwSSM1Sh(5)": 0.8549, "SIG_SlPc": 9999.9, "NTwInpSt": 10.0, "StallMod": "BEDDOES", "T_Shad_Refpt": 9999.9, "TwrSSDmp(1)": 3.435, "GBRevers": "False", "PtfmFile": "unused", "BldFlDmp(1)_3": 3.882, "TPitManS(1)": 9999.9, "CNST(1)": -1.0, "BldFlDmp(1)_1": 3.882, "YawDOF": "False", "FlStTunr(2)_2": 1.0, "TEC_MR": 9999.9, "AdjTwMa": 1.0, "AdjFlSt_2": 1.0, "GenIner": 56.442477, "TwFADOF1": "True", "TwFAM2Sh(6)": -34.3637, "TwFADOF2": "True", "NacYaw": 0.0, "NumFoil": 4, "GBoxEff": 100.0, "YawSpr": 0.0, "BldFl2Sh(4)_1": -0.9342, "BldFlDmp(1)_2": 3.882, "BldFl2Sh(4)_3": -0.9342, "BldEdgSh(3)_3": 3.87, "TwSSM1Sh(3)": 0.4483, "BldEdgSh(3)_1": 3.87, "NacCMxn": -0.168052, "TeetDefl": 0.0, "ShftTilt": -5.0, "AirDens": 1.225, "TEC_VLL": 9999.9, "FlStTunr(2)_1": 1.0, "TPitManE(3)": 9999.9, "ShftGagL": 0.0, "YCMode": 0.0, "NTwGages": 0.0, "BldEdgSh(4)_3": -7.939, "FlStTunr(1)_3": 1.0, "SumPrint": "False", "TMax": 630.0, "BldFl2Sh(2)_2": -0.2649, "TwSSM1Sh(2)": 0.7475, "FlStTunr(1)_2": 1.0, "Echo": "False", "TwrSSDmp(2)": 3.435, "TeetDmp": 0.0, "TPitManS(2)": 9999.9, "NoiseFile": "unused", "CNST(3)": 0.3, "AdjBlMs_1": 1.0, "TTDspFA": 0.0, "AeroCent_2": "BlFract", "FlapDOF1": "True", "FlapDOF2": "True", "AeroCent_1": "BlFract", "AdjFlSt_3": 1.0, "TwrCmnt": "FAST v7.02 tower file for turbine \"WP1.5A08V03\" (J. Rinker, Duke University, 30-Dec-15)", "BldFlDmp(2)_3": 3.882, "BldFl1Sh(6)_2": -0.8163, "TwrShad": 0.0, "TYCOn": 9999.9, "GBRatio": 87.9645943, "TowerHt": 82.39, "Gravity": 9.80665, "FlStTunr(1)_1": 1.0, "BldFile(1)": "WP1.5A08V03_Blade.dat", "Furling": "False", "BldFl1Sh(6)_1": -0.8163, "RPM2P_Den": [1.0, 0.02], "TurbName": "WP1.5A08V03", "BldFl2Sh(2)_1": -0.2649, "BldFile(3)": "WP1.5A08V03_Blade.dat", "BldFl1Sh(3)_1": 2.1356, "TwSSM2Sh(3)": 13.5598, "CompAero": "True", "ADCmnt": "FAST v7.02 AeroDyn file for turbine \"WP1.5A08V03\" (J. Rinker, Duke University, 30-Dec-15)", "TYawManE": 9999.9, "CNST(7)": 0.045378561, "BldEdgSh(3)_2": 3.87, "BldEdgSh(2)_2": 0.3121, "BldEdgSh(2)_1": 0.3121, "TBDepISp(3)": 9999.9, "BlPitchF(1)": 2.6, "FlStTunr(2)_3": 1.0, "FoilNm": ["cylinder.dat", "s818_2703.dat", "s825_2103.dat", "s826_1603.dat"], "RPM2PI_Den": [0.0, 1.0], "TYawManS": 9999.9, "TipMass(3)": 0.0, "GenTiStr": "True", "TwSSDOF2": "True", "GenTiStp": "True", "TwSSM2Sh(2)": -22.7796, "SSStTunr(2)": 1.0, "UndSling": 0.0, "TPitManS(3)": 9999.9, "TeetMod": 0.0, "PSpnElN": 1.0, "BldFlDmp(2)_2": 3.882, "RotSpeed": 23.1, "TTpBrDp(3)": 9999.9, "BldFlDmp(2)_1": 3.882, "AdjFlSt_1": 1.0, "FAStTunr(2)": 1.0, "TeetDmpP": 0.0, "P2P_Order": 2, "IndModel": "SWIRL", "TwFAM2Sh(3)": 13.5598, "AToler": 0.005, "InfModel": "EQUIL", "PtfmModel": 0.0, "TiDynBrk": 9999.9, "NcIMUyn": 0.0, "BldFl1Sh(2)_3": 0.0809, "DynBrkFi": "unused", "TwFAM1Sh(2)": 0.7475, "NumBl": 3.0, "HubRad": 1.75, "TwSSM2Sh(5)": 58.4919, "TwrSched": [[0.0, 2549.996791, 248017961000.0, 248017961000.0, 190783047000.0, 61874353400.0], [0.1111111, 2285.894083, 196124484000.0, 196124484000.0, 150864988000.0, 55466037800.0], [0.2222222, 2035.913391, 152799439000.0, 152799439000.0, 117538030000.0, 49400385600.0], [0.3333333, 1800.054715, 117048610000.0, 117048610000.0, 90037392300.0, 43677396800.0], [0.4444444, 1578.318056, 87938673700.0, 87938673700.0, 67645133600.0, 38297071400.0], [0.5555556, 1370.703413, 64597203500.0, 64597203500.0, 49690156600.0, 33259409500.0], [0.6666667, 1177.210786, 46212667200.0, 46212667200.0, 35548205500.0, 28564411000.0], [0.7777778, 997.8401764, 32034427300.0, 32034427300.0, 24641867100.0, 24212075900.0], [0.8888889, 832.5915826, 21372741200.0, 21372741200.0, 16440570100.0, 20202404200.0], [1.0, 681.4650052, 13598761300.0, 13598761300.0, 10460585600.0, 16535395900.0]], "EdgeDOF": "True", "TBDepISp(2)": 9999.9, "CalcBMode_3": "False", "TwrFADmp(2)": 3.435, "P2P_Den": [73.4694, 13.7143, 1.0], "TipMass(2)": 0.0, "TLModel": "PRANDtl", "CNST(11)": 0.0, "TEC_SRes": 9999.9, "RatedPwr": 1500000.0, "TurbDir": "C:\\Users\\jrinker\\Documents\\GitHub\\dissertation\\FAST_models\\WindPACT\\code\\templates", "ADAMSFile": "WP_Template_ADAMS.dat", "TwSSM2Sh(4)": -13.9084, "OverHang": -3.3, "BldFile(2)": "WP1.5A08V03_Blade.dat", "SpdGenOn": 9999.9, "NacYIner": 45376.990834, "CalcTMode": "False", "AeroCent_3": "BlFract", "FAStTunr(1)": 1.0, "TeetHSSp": 0.0, "BldEdDmp(1)_3": 5.9, "IPDefl": 0.0, "AzimB1Up": 0.0, "TA2P_Order": 0, "TwFAM2Sh(2)": -22.7796, "BldNodes": 15.0, "BldEdDmp(1)_2": 5.9, "TTpBrDp(1)": 9999.9, "TwrNodes": 10.0, "TEC_SLR": 9999.9, "TwSSM1Sh(6)": -0.4702, "BldFl2Sh(2)_3": -0.2649, "DrTrDOF": "True", "TBDrConD": 0.0, "TA2P_Num": [9.64, 1.4], "CalcBMode_1": "False", "CalcBMode_2": "False", "TPitManE(1)": 9999.9, "TwrGagNd": 0.0, "TeetHStP": 0.0, "OutFileFmt": 1.0, "BldEdgSh(6)_3": -2.6099, "TBDepISp(1)": 9999.9, "NacMass": 52838.90826, "HSSBrTqF": 9999.9, "TwrRBHt": 0.0, "TwFAM1Sh(6)": -0.4702, "NCSNT": 11.0, "PCMode": 1.0, "TipMass(1)": 0.0, "TipRad": 35.0, "ADFile": "WP1.5A08V03_AD.ipt", "TBDrConN": 0.0, "ADSched": [[2.8583333333, 11.1, 2.216666667, 1.9485391, 1.0, "NOPRINT"], [5.075, 11.1, 2.216666667, 2.268929, 2.0, "NOPRINT"], [7.2916666667, 11.1, 2.216666667, 2.5893188, 2.0, "NOPRINT"], [9.5083333333, 10.4066667, 2.216666667, 2.7434832, 2.0, "NOPRINT"], [11.725, 8.38, 2.216666667, 2.5779832, 2.0, "NOPRINT"], [13.9416666667, 6.3533333, 2.216666667, 2.4124833, 2.0, "NOPRINT"], [16.1583333333, 4.3266667, 2.216666667, 2.2469833, 2.0, "NOPRINT"], [18.375, 2.85, 2.216666667, 2.0815088, 3.0, "NOPRINT"], [20.5916666667, 2.2166667, 2.216666667, 1.9160732, 3.0, "NOPRINT"], [22.8083333333, 1.5833333, 2.216666667, 1.7506375, 3.0, "NOPRINT"], [25.025, 0.95, 2.216666667, 1.5852019, 3.0, "NOPRINT"], [27.2416666667, 0.532, 2.216666667, 1.4271645, 3.0, "NOPRINT"], [29.4583333333, 0.38, 2.216666667, 1.278266, 3.0, "NOPRINT"], [31.675, 0.228, 2.216666667, 1.1293675, 4.0, "NOPRINT"], [33.8916666667, 0.076, 2.216666667, 0.9804691, 4.0, "NOPRINT"]], "TEC_RLR": 9999.9, "CNST(5)": 90.0, "TEC_NPol": 9998.0, "KinVisc": 1.4639e-05, "HubMass": 19186.870178, "BldFl2Sh(3)_2": -3.1596, "BldFl2Sh(6)_2": -7.6209, "VS_RtGnSp": 1800.0, "WindFile": "{:s}", "BldFl2Sh(6)_1": -7.6209, "CNST(6)": 0.025, "BlPitchF(2)": 2.6, "RPM2P_Num": [5.14, 0.08], "BldEdgSh(5)_1": 7.3668, "TEC_Freq": 9999.9, "BldEdgSh(5)_3": 7.3668, "BldEdgSh(5)_2": 7.3668, "TeetCDmp": 0.0, "TMassDen": "HtFract", "TA2P_Den": [0.358, 1.0], "AdjSSSt": 1.0, "CNST(10)": -0.5, "TTpBrDp(2)": 9999.9, "TTDspSS": 0.0, "BldFl1Sh(6)_3": -0.8163, "BldEdgSh(4)_1": -7.939, "BlPitch(1)": 2.6, "TPCOn": 1.0, "TimGenOn": 0.0, "UseCm": "NO_CM", "NcIMUzn": 0.0, "HH": 84.287613951067272, "TimGenOf": 9999.9, "BldEdDmp(1)_1": 5.9, "TwFAM1Sh(5)": 0.8549, "DecFact": 10.0, "CNST(2)": 20.4627784, "PreCone(2)": 0.0, "TwFAM2Sh(4)": -13.9084, "FASTCmnt1": "FAST v7.02 input file for turbine \"WP1.5A08V03\"", "BldEdgSh(6)_1": -2.6099, "BldEdgSh(6)_2": -2.6099, "FASTCmnt2": "Generated by J. Rinker (Duke University) on 30-Dec-15 based on WindPACT Excel input files", "SysUnits": "SI", "SSStTunr(1)": 1.0, "HubCM": 0.0, "ADAMSPrep": 1.0, "CntrlRgn": 3.0, "HSSBrMode": 1.0, "OutFmt": "ES10.3E2", "VS_RtTq": 8376.575952, "BldSched_2": [[0.0, 0.25, 11.1, 1447.606765, 7681460000.0, 7681460000.0, 2655230000.0, 17152700000.0], [0.021053, 0.25, 11.1, 175.0952675, 1135890000.0, 1135890000.0, 396923000.0, 2564100000.0], [0.052632, 0.229424, 11.1, 177.0636888, 991869000.0, 1063800000.0, 333910000.0, 2543930000.0], [0.105263, 0.20118, 11.1, 180.3443908, 751834000.0, 943643000.0, 228887000.0, 2510310000.0], [0.157895, 0.1785453, 11.1, 183.6250929, 511798000.0, 823488000.0, 123865000.0, 2476690000.0], [0.210526, 0.16, 11.1, 186.9057949, 271763000.0, 703333000.0, 18842800.0, 2443060000.0], [0.263158, 0.1648253, 9.5, 177.1492287, 232457000.0, 613841000.0, 16769700.0, 2316360000.0], [0.315789, 0.1701473, 7.9, 167.3926624, 193152000.0, 524348000.0, 14696600.0, 2189660000.0], [0.368421, 0.1760467, 6.3, 157.6360961, 153846000.0, 434855000.0, 12623500.0, 2062960000.0], [0.421053, 0.1826231, 4.7, 147.8795298, 114540000.0, 345363000.0, 10550400.0, 1936260000.0], [0.473684, 0.19, 3.1, 138.1229636, 75234800.0, 255870000.0, 8477350.0, 1809550000.0], [0.526316, 0.1944453, 2.6, 122.8959919, 62494700.0, 217866000.0, 7117490.0, 1605310000.0], [0.578947, 0.1995064, 2.1, 107.6690203, 49754700.0, 179862000.0, 5757620.0, 1401060000.0], [0.631579, 0.2053209, 1.6, 92.4420487, 37014600.0, 141857000.0, 4397760.0, 1196810000.0], [0.684211, 0.2120703, 1.1, 77.2150771, 24274500.0, 103853000.0, 3037900.0, 992561000.0], [0.736842, 0.22, 0.6, 61.9881055, 11534400.0, 65848800.0, 1678040.0, 788313000.0], [0.789474, 0.22395, 0.48, 51.8610625, 9273810.0, 54253900.0, 1378320.0, 654345000.0], [0.842105, 0.2286378, 0.36, 41.7340195, 7013180.0, 42658900.0, 1078600.0, 520376000.0], [0.894737, 0.2342915, 0.24, 31.6069766, 4752550.0, 31064000.0, 778877.0, 386408000.0], [0.947368, 0.2412437, 0.12, 21.4799336, 2491920.0, 19469000.0, 479155.0, 252440000.0], [1.0, 0.25, 0.0, 11.3528907, 231293.0, 7874070.0, 179433.0, 118472000.0]], "BldFl1Sh(4)_1": -2.3661, "HSSBrDT": 9999.9, "DT": 0.005, "BldFl1Sh(4)_2": -2.3661, "BldFl1Sh(4)_3": -2.3661, "TeetDOF": "False", "FurlFile": "unused", "AdjEdSt_1": 1.0, "BldCmnt_2": "FAST v7.02 blade file for turbine \"WP1.5A08V03\" (J. Rinker, Duke University, 30-Dec-15)", "AnalMode": 1.0, "CNST(9)": 0.213022441, "VS_SlPc": 9.9999e-06, "CompNoise": "False", "BlPitch(2)": 2.6, "TwSSM2Sh(6)": -34.3637, "RPM2P_Order": 1, "PitchFile": "pitch.ipt", "GenEff": 95.0, "SIG_SySp": 9999.9, "SttsTime": 1.0, "TStart": 30.0, "BldFl2Sh(6)_3": -7.6209, "PreCone(3)": 0.0, "TeetSSSp": 0.0, "TwFAM1Sh(4)": -0.5805, "CNST(4)": 2.6, "RPM2PI_Order": 1, "PitchCmnt": "Pitch controller for turbine \"WP1.5A08V03\" (J. Rinker, Duke University, 30-Dec-15)", "DTTorSpr": 483000000.0, "BldEdgSh(4)_2": -7.939, "GenModel": 1.0, "BldFl1Sh(3)_2": 2.1356, "BldFl1Sh(3)_3": 2.1356, "NacYawF": 0.0, "TwFAM2Sh(5)": 58.4919, "DTAero": 0.005, "TwrFADmp(1)": 3.435, "P2P_Num": [73.4694, 0.0, 0.0], "OutList": ["\"WindVxi,WindVyi,WindVzi\"          \t- Wind-speed components\n", "\"OoPDefl1,IPDefl1,TipDzb1,TwrClrnc1\"\t- Blade 1 tip motions\n", "\"OoPDefl2,IPDefl2,TipDzb2,TwrClrnc2\"\t- Blade 2 tip motions\n", "\"OoPDefl3,IPDefl3,TipDzb3,TwrClrnc3\"\t- Blade 3 tip motions\n", "\"BldPitch1,BldPitch2,BldPitch3\"         - Blade pitch motions\n", "\"Azimuth,RotSpeed,RotAccel\"\t\t- LSS motion\n", "\"GenSpeed,GenAccel,TSR\"\t\t\t- HSS motion\n", "\"TTDspFA,TTDspSS,TTDspAx\"\t\t- Towertop motions\n", "\"YawBrTAxp,YawBrTAyp,YawBrTAzp\"\t\t- Towertop accelerations\n", "\"RootFzb1,RootMIP1,RootMOoP1,RootMzb1\"\t- Blade 1 root loads (1/2)\n", "\"RootMEdg1,RootMFlp1\"\t\t\t- Blade 1 root loads (2/2)\n", "\"RootFzb2,RootMIP2,RootMOoP2,RootMzb2\"\t- Blade 2 root loads (1/2)\n", "\"RootMEdg2,RootMFlp2\"\t\t\t- Blade 2 root loads (2/2)\n", "\"RootFzb3,RootMIP3,RootMOoP3,RootMzb3\"\t- Blade 3 root loads (1/2)\n", "\"RootMEdg3,RootMFlp3\"\t\t\t- Blade 3 root loads (2/2)\n", "\"RotThrust,LSSGagFya,LSSGagFza\"\t\t- Hub and rotor loads (1/3)\n", "\"LSSGagFys,LSSGagFzs,RotTorq,CThrstArm\"\t- Hub and rotor loads (2/3)\n", "\"LSShftPwr,LSShftCq,LSShftCp,LSShftCt\"\t- Hub and rotor loads (3/3)\n", "\"HSShftTq,HSShftPwr,HSShftCq,HSShftCp\"\t- Generator and HSS loads (1/2)\n", "\"GenTq,GenPwr,GenCq,GenCp\"\t\t- Generator and HSS loads (2/2)\n", "\"YawBrFzp,YawBrMzp\"\t\t\t- Tower top yaw-bearing loads\n", "\"TwrBsFxt,TwrBsFyt,TwrBsFzt\"\t\t- Tower base loads (1/2)\n", "\"TwrBsMxt,TwrBsMyt,TwrBsMzt\"\t\t- Tower base loads (2/2)\n"], "BldFl2Sh(4)_2": -0.9342, "YawNeut": 0.0, "Azimuth": 0.0, "HLModel": "PRANDtl", "NBlGages": 0.0, "AdjEdSt_3": 1.0, "NacCMzn": 1.384518, "TpBrDT": 0.0, "SIG_RtTq": 9999.9, "TwSSM1Sh(4)": -0.5805, "BldCmnt_1": "FAST v7.02 blade file for turbine \"WP1.5A08V03\" (J. Rinker, Duke University, 30-Dec-15)", "OoPDefl": 0.0, "BldCmnt_3": "FAST v7.02 blade file for turbine \"WP1.5A08V03\" (J. Rinker, Duke University, 30-Dec-15)", "BldFl1Sh(5)_2": 1.9659, "BldFl1Sh(5)_3": 1.9659, "HubIner": 29975.370571, "BldFl1Sh(5)_1": 1.9659, "Twr2Shft": 1.61, "TeetSStP": 0.0, "CNST(8)": 0.523598776, "BldSched_1": [[0.0, 0.25, 11.1, 1447.606765, 7681460000.0, 7681460000.0, 2655230000.0, 17152700000.0], [0.021053, 0.25, 11.1, 175.0952675, 1135890000.0, 1135890000.0, 396923000.0, 2564100000.0], [0.052632, 0.229424, 11.1, 177.0636888, 991869000.0, 1063800000.0, 333910000.0, 2543930000.0], [0.105263, 0.20118, 11.1, 180.3443908, 751834000.0, 943643000.0, 228887000.0, 2510310000.0], [0.157895, 0.1785453, 11.1, 183.6250929, 511798000.0, 823488000.0, 123865000.0, 2476690000.0], [0.210526, 0.16, 11.1, 186.9057949, 271763000.0, 703333000.0, 18842800.0, 2443060000.0], [0.263158, 0.1648253, 9.5, 177.1492287, 232457000.0, 613841000.0, 16769700.0, 2316360000.0], [0.315789, 0.1701473, 7.9, 167.3926624, 193152000.0, 524348000.0, 14696600.0, 2189660000.0], [0.368421, 0.1760467, 6.3, 157.6360961, 153846000.0, 434855000.0, 12623500.0, 2062960000.0], [0.421053, 0.1826231, 4.7, 147.8795298, 114540000.0, 345363000.0, 10550400.0, 1936260000.0], [0.473684, 0.19, 3.1, 138.1229636, 75234800.0, 255870000.0, 8477350.0, 1809550000.0], [0.526316, 0.1944453, 2.6, 122.8959919, 62494700.0, 217866000.0, 7117490.0, 1605310000.0], [0.578947, 0.1995064, 2.1, 107.6690203, 49754700.0, 179862000.0, 5757620.0, 1401060000.0], [0.631579, 0.2053209, 1.6, 92.4420487, 37014600.0, 141857000.0, 4397760.0, 1196810000.0], [0.684211, 0.2120703, 1.1, 77.2150771, 24274500.0, 103853000.0, 3037900.0, 992561000.0], [0.736842, 0.22, 0.6, 61.9881055, 11534400.0, 65848800.0, 1678040.0, 788313000.0], [0.789474, 0.22395, 0.48, 51.8610625, 9273810.0, 54253900.0, 1378320.0, 654345000.0], [0.842105, 0.2286378, 0.36, 41.7340195, 7013180.0, 42658900.0, 1078600.0, 520376000.0], [0.894737, 0.2342915, 0.24, 31.6069766, 4752550.0, 31064000.0, 778877.0, 386408000.0], [0.947368, 0.2412437, 0.12, 21.4799336, 2491920.0, 19469000.0, 479155.0, 252440000.0], [1.0, 0.25, 0.0, 11.3528907, 231293.0, 7874070.0, 179433.0, 118472000.0]], "BlPitch(3)": 2.6, "BldSched_3": [[0.0, 0.25, 11.1, 1447.606765, 7681460000.0, 7681460000.0, 2655230000.0, 17152700000.0], [0.021053, 0.25, 11.1, 175.0952675, 1135890000.0, 1135890000.0, 396923000.0, 2564100000.0], [0.052632, 0.229424, 11.1, 177.0636888, 991869000.0, 1063800000.0, 333910000.0, 2543930000.0], [0.105263, 0.20118, 11.1, 180.3443908, 751834000.0, 943643000.0, 228887000.0, 2510310000.0], [0.157895, 0.1785453, 11.1, 183.6250929, 511798000.0, 823488000.0, 123865000.0, 2476690000.0], [0.210526, 0.16, 11.1, 186.9057949, 271763000.0, 703333000.0, 18842800.0, 2443060000.0], [0.263158, 0.1648253, 9.5, 177.1492287, 232457000.0, 613841000.0, 16769700.0, 2316360000.0], [0.315789, 0.1701473, 7.9, 167.3926624, 193152000.0, 524348000.0, 14696600.0, 2189660000.0], [0.368421, 0.1760467, 6.3, 157.6360961, 153846000.0, 434855000.0, 12623500.0, 2062960000.0], [0.421053, 0.1826231, 4.7, 147.8795298, 114540000.0, 345363000.0, 10550400.0, 1936260000.0], [0.473684, 0.19, 3.1, 138.1229636, 75234800.0, 255870000.0, 8477350.0, 1809550000.0], [0.526316, 0.1944453, 2.6, 122.8959919, 62494700.0, 217866000.0, 7117490.0, 1605310000.0], [0.578947, 0.1995064, 2.1, 107.6690203, 49754700.0, 179862000.0, 5757620.0, 1401060000.0], [0.631579, 0.2053209, 1.6, 92.4420487, 37014600.0, 141857000.0, 4397760.0, 1196810000.0], [0.684211, 0.2120703, 1.1, 77.2150771, 24274500.0, 103853000.0, 3037900.0, 992561000.0], [0.736842, 0.22, 0.6, 61.9881055, 11534400.0, 65848800.0, 1678040.0, 788313000.0], [0.789474, 0.22395, 0.48, 51.8610625, 9273810.0, 54253900.0, 1378320.0, 654345000.0], [0.842105, 0.2286378, 0.36, 41.7340195, 7013180.0, 42658900.0, 1078600.0, 520376000.0], [0.894737, 0.2342915, 0.24, 31.6069766, 4752550.0, 31064000.0, 778877.0, 386408000.0], [0.947368, 0.2412437, 0.12, 21.4799336, 2491920.0, 19469000.0, 479155.0, 252440000.0], [1.0, 0.25, 0.0, 11.3528907, 231293.0, 7874070.0, 179433.0, 118472000.0]], "NBlInpSt_2": 21.0, "BldGagNd": 0.0, "BldFl1Sh(2)_1": 0.0809, "BldFl2Sh(3)_1": -3.1596, "DTTorDmp": 1360000.0, "AdjEdSt_2": 1.0, "SIG_PORt": 9999.9, "YawDamp": 0.0, "BldFl1Sh(2)_2": 0.0809, "TwFAM1Sh(3)": 0.4483}