{"PreCone(1)": 0.0, "BldEdgSh(2)_3": 0.3221, "BldFl2Sh(5)_3": 11.9217, "BldFl2Sh(5)_2": 11.9217, "BldFl2Sh(5)_1": 11.9217, "ShadHWid": 9999.9, "NBlInpSt_1": 21.0, "NBlInpSt_3": 21.0, "TEC_RRes": 9999.9, "TabDelim": "True", "VS_Rgn2K": 0.0051707259, "TwrFile": "WP3.0A02V02_Tower.dat", "NacCMyn": 0.0, "NcIMUxn": 0.0, "AdjBlMs_3": 1.0, "AdjBlMs_2": 1.0, "AdjFASt": 1.0, "VSContrl": 1.0, "TwSSDOF1": "True", "TPitManE(2)": 9999.9, "GenDOF": "True", "LinFile": "WP_Template_Linear.dat", "BlPitchF(3)": 2.6, "BldFl2Sh(3)_3": -3.3468, "Delta3": 0.0, "YawBrMass": 0.0, "RPM2PI_Num": [2.22, 0.0], "THSSBrDp": 9999.9, "TwSSM1Sh(5)": 1.0585, "SIG_SlPc": 9999.9, "NTwInpSt": 10.0, "StallMod": "BEDDOES", "T_Shad_Refpt": 9999.9, "TwrSSDmp(1)": 3.435, "GBRevers": "False", "PtfmFile": "unused", "BldFlDmp(1)_3": 3.882, "TPitManS(1)": 9999.9, "CNST(1)": -1.0, "BldFlDmp(1)_1": 3.882, "YawDOF": "False", "FlStTunr(2)_2": 1.0, "TEC_MR": 9999.9, "AdjTwMa": 1.0, "AdjFlSt_2": 1.0, "GenIner": 177.884781, "TwFADOF1": "True", "TwFAM2Sh(6)": -39.7747, "TwFADOF2": "True", "NacYaw": 0.0, "NumFoil": 4, "GBoxEff": 100.0, "YawSpr": 0.0, "BldFl2Sh(4)_1": -0.0924, "BldFlDmp(1)_2": 3.882, "BldFl2Sh(4)_3": -0.0924, "BldEdgSh(3)_3": 3.9348, "TwSSM1Sh(3)": 0.5003, "BldEdgSh(3)_1": 3.9348, "NacCMxn": -0.225697, "TeetDefl": 0.0, "ShftTilt": -5.0, "AirDens": 1.225, "TEC_VLL": 9999.9, "FlStTunr(2)_1": 1.0, "TPitManE(3)": 9999.9, "ShftGagL": 0.0, "YCMode": 0.0, "NTwGages": 0.0, "BldEdgSh(4)_3": -8.1523, "FlStTunr(1)_3": 1.0, "SumPrint": "False", "TMax": 630.0, "BldFl2Sh(2)_2": -0.2679, "TwSSM1Sh(2)": 0.7027, "FlStTunr(1)_2": 1.0, "Echo": "False", "TwrSSDmp(2)": 3.435, "TeetDmp": 0.0, "TPitManS(2)": 9999.9, "NoiseFile": "unused", "CNST(3)": 0.3, "AdjBlMs_1": 1.0, "TTDspFA": 0.0, "AeroCent_2": "BlFract", "FlapDOF1": "True", "FlapDOF2": "True", "AeroCent_1": "BlFract", "AdjFlSt_3": 1.0, "TwrCmnt": "FAST v7.02 tower file for turbine \"WP3.0A02V02\" (J. Rinker, Duke University, 30-Dec-15)", "BldFlDmp(2)_3": 3.882, "BldFl1Sh(6)_2": -0.8507, "TwrShad": 0.0, "TYCOn": 9999.9, "GBRatio": 124.4070691, "TowerHt": 116.731, "Gravity": 9.80665, "FlStTunr(1)_1": 1.0, "BldFile(1)": "WP3.0A02V02_Blade.dat", "Furling": "False", "BldFl1Sh(6)_1": -0.8507, "RPM2P_Den": [1.0, 0.02], "TurbName": "WP3.0A02V02", "BldFl2Sh(2)_1": -0.2679, "BldFile(3)": "WP3.0A02V02_Blade.dat", "BldFl1Sh(3)_1": 2.3339, "TwSSM2Sh(3)": 14.9349, "CompAero": "True", "ADCmnt": "FAST v7.02 AeroDyn file for turbine \"WP3.0A02V02\" (J. Rinker, Duke University, 30-Dec-15)", "TYawManE": 9999.9, "CNST(7)": 0.045378561, "BldEdgSh(3)_2": 3.9348, "BldEdgSh(2)_2": 0.3221, "BldEdgSh(2)_1": 0.3221, "TBDepISp(3)": 9999.9, "BlPitchF(1)": 2.6, "FlStTunr(2)_3": 1.0, "FoilNm": ["cylinder.dat", "s818_2703.dat", "s825_2103.dat", "s826_1603.dat"], "RPM2PI_Den": [0.0, 1.0], "TYawManS": 9999.9, "TipMass(3)": 0.0, "GenTiStr": "True", "TwSSDOF2": "True", "GenTiStp": "True", "TwSSM2Sh(2)": -23.6164, "SSStTunr(2)": 1.0, "UndSling": 0.0, "TPitManS(3)": 9999.9, "TeetMod": 0.0, "PSpnElN": 1.0, "BldFlDmp(2)_2": 3.882, "RotSpeed": 23.1, "TTpBrDp(3)": 9999.9, "BldFlDmp(2)_1": 3.882, "AdjFlSt_1": 1.0, "FAStTunr(2)": 1.0, "TeetDmpP": 0.0, "P2P_Order": 2, "IndModel": "SWIRL", "TwFAM2Sh(3)": 14.9349, "AToler": 0.005, "InfModel": "EQUIL", "PtfmModel": 0.0, "TiDynBrk": 9999.9, "NcIMUyn": 0.0, "BldFl1Sh(2)_3": 0.09, "DynBrkFi": "unused", "TwFAM1Sh(2)": 0.7027, "NumBl": 3.0, "HubRad": 2.475, "TwSSM2Sh(5)": 71.24, "TwrSched": [[0.0, 5176.362062, 1050330630000.0, 1050330630000.0, 807946637000.0, 131225707000.0], [0.1111111, 4572.926297, 820344113000.0, 820344113000.0, 631033933000.0, 115928036000.0], [0.2222222, 4006.874837, 630369721000.0, 630369721000.0, 484899786000.0, 101578093000.0], [0.3333333, 3478.207683, 475473250000.0, 475473250000.0, 365748654000.0, 88175876900.0], [0.4444444, 2986.924835, 351045305000.0, 351045305000.0, 270034850000.0, 75721388900.0], [0.5555556, 2533.026292, 252801306000.0, 252801306000.0, 194462543000.0, 64214628600.0], [0.6666667, 2116.512055, 176781480000.0, 176781480000.0, 135985754000.0, 53655596000.0], [0.7777778, 1737.382124, 119350868000.0, 119350868000.0, 91808360000.0, 44044291200.0], [0.8888889, 1395.636498, 77199320900.0, 77199320900.0, 59384093000.0, 35380714200.0], [1.0, 1091.275177, 47341500100.0, 47341500100.0, 36416538500.0, 27664864900.0]], "EdgeDOF": "True", "TBDepISp(2)": 9999.9, "CalcBMode_3": "False", "TwrFADmp(2)": 3.435, "P2P_Den": [36.7309, 9.697, 1.0], "TipMass(2)": 0.0, "TLModel": "PRANDtl", "CNST(11)": 0.0, "TEC_SRes": 9999.9, "RatedPwr": 3000000.0, "TurbDir": "C:\\Users\\jrinker\\Documents\\GitHub\\dissertation\\FAST_models\\WindPACT\\code\\templates", "ADAMSFile": "WP_Template_ADAMS.dat", "TwSSM2Sh(4)": -21.7838, "OverHang": -4.65, "BldFile(2)": "WP3.0A02V02_Blade.dat", "SpdGenOn": 9999.9, "NacYIner": 211744.316264, "CalcTMode": "False", "AeroCent_3": "BlFract", "FAStTunr(1)": 1.0, "TeetHSSp": 0.0, "BldEdDmp(1)_3": 5.9, "IPDefl": 0.0, "AzimB1Up": 0.0, "TA2P_Order": 0, "TwFAM2Sh(2)": -23.6164, "BldNodes": 15.0, "BldEdDmp(1)_2": 5.9, "TTpBrDp(1)": 9999.9, "TwrNodes": 10.0, "TEC_SLR": 9999.9, "TwSSM1Sh(6)": -0.5628, "BldFl2Sh(2)_3": -0.2679, "DrTrDOF": "True", "TBDrConD": 0.0, "TA2P_Num": [9.64, 1.4], "CalcBMode_1": "False", "CalcBMode_2": "False", "TPitManE(1)": 9999.9, "TwrGagNd": 0.0, "TeetHStP": 0.0, "OutFileFmt": 1.0, "BldEdgSh(6)_3": -2.6759, "TBDepISp(1)": 9999.9, "NacMass": 132597.747599, "HSSBrTqF": 9999.9, "TwrRBHt": 0.0, "TwFAM1Sh(6)": -0.5628, "NCSNT": 11.0, "PCMode": 1.0, "TipMass(1)": 0.0, "TipRad": 49.5, "ADFile": "WP3.0A02V02_AD.ipt", "TBDrConN": 0.0, "ADSched": [[4.0425, 11.1, 3.135, 2.7564053, 1.0, "NOPRINT"], [7.1775, 11.1, 3.135, 3.2092888, 2.0, "NOPRINT"], [10.3125, 11.1, 3.135, 3.6621723, 2.0, "NOPRINT"], [13.4475, 10.4066667, 3.135, 3.8800593, 2.0, "NOPRINT"], [16.5825, 8.38, 3.135, 3.64603, 2.0, "NOPRINT"], [19.7175, 6.3533333, 3.135, 3.4120007, 2.0, "NOPRINT"], [22.8525, 4.3266667, 3.135, 3.1779714, 2.0, "NOPRINT"], [25.9875, 2.85, 3.135, 2.9439421, 3.0, "NOPRINT"], [29.1225, 2.2166667, 3.135, 2.7099128, 3.0, "NOPRINT"], [32.2575, 1.5833333, 3.135, 2.4758835, 3.0, "NOPRINT"], [35.3925, 0.95, 3.135, 2.2418542, 3.0, "NOPRINT"], [38.5275, 0.532, 3.135, 2.0183033, 3.0, "NOPRINT"], [41.6625, 0.38, 3.135, 1.8076962, 3.0, "NOPRINT"], [44.7975, 0.228, 3.135, 1.5970892, 4.0, "NOPRINT"], [47.9325, 0.076, 3.135, 1.3864821, 4.0, "NOPRINT"]], "TEC_RLR": 9999.9, "CNST(5)": 90.0, "TEC_NPol": 9998.0, "KinVisc": 1.4639e-05, "HubMass": 61670.626928, "BldFl2Sh(3)_2": -3.3468, "BldFl2Sh(6)_2": -7.2145, "VS_RtGnSp": 1800.0, "WindFile": "{:s}", "BldFl2Sh(6)_1": -7.2145, "CNST(6)": 0.025, "BlPitchF(2)": 2.6, "RPM2P_Num": [5.14, 0.08], "BldEdgSh(5)_1": 7.5713, "TEC_Freq": 9999.9, "BldEdgSh(5)_3": 7.5713, "BldEdgSh(5)_2": 7.5713, "TeetCDmp": 0.0, "TMassDen": "HtFract", "TA2P_Den": [0.358, 1.0], "AdjSSSt": 1.0, "CNST(10)": -0.5, "TTpBrDp(2)": 9999.9, "TTDspSS": 0.0, "BldFl1Sh(6)_3": -0.8507, "BldEdgSh(4)_1": -8.1523, "BlPitch(1)": 2.6, "TPCOn": 1.0, "TimGenOn": 0.0, "UseCm": "NO_CM", "NcIMUzn": 0.0, "HH": 119.40527420377661, "TimGenOf": 9999.9, "BldEdDmp(1)_1": 5.9, "TwFAM1Sh(5)": 1.0585, "DecFact": 10.0, "CNST(2)": 14.46863119, "PreCone(2)": 0.0, "TwFAM2Sh(4)": -21.7838, "FASTCmnt1": "FAST v7.02 input file for turbine \"WP3.0A02V02\"", "BldEdgSh(6)_1": -2.6759, "BldEdgSh(6)_2": -2.6759, "FASTCmnt2": "Generated by J. Rinker (Duke University) on 30-Dec-15 based on WindPACT Excel input files", "SysUnits": "SI", "SSStTunr(1)": 1.0, "HubCM": 0.0, "ADAMSPrep": 1.0, "CntrlRgn": 3.0, "HSSBrMode": 1.0, "OutFmt": "ES10.3E2", "VS_RtTq": 16753.151904, "BldSched_2": [[0.0, 0.25, 11.1, 2514.2728794, 25915800000.0, 25915800000.0, 8966510000.0, 28944400000.0], [0.021053, 0.25, 11.1, 378.4647644, 4995750000.0, 4995750000.0, 1745700000.0, 5635230000.0], [0.052632, 0.229428, 11.1, 382.964776, 4405830000.0, 4814150000.0, 1465310000.0, 5585650000.0], [0.105263, 0.2011856, 11.1, 390.4647954, 3422620000.0, 4511500000.0, 997974000.0, 5503030000.0], [0.157895, 0.1785491, 11.1, 397.9648147, 2439410000.0, 4208840000.0, 530644000.0, 5420400000.0], [0.210526, 0.16, 11.1, 405.4648341, 1456210000.0, 3906180000.0, 63313300.0, 5337780000.0], [0.263158, 0.1648255, 9.5, 388.2953023, 1237440000.0, 3322550000.0, 55747000.0, 5115440000.0], [0.315789, 0.1701476, 7.9, 371.1257704, 1018670000.0, 2738910000.0, 48180700.0, 4893090000.0], [0.368421, 0.1760471, 6.3, 353.9562386, 799899000.0, 2155280000.0, 40614400.0, 4670750000.0], [0.421053, 0.1826234, 4.7, 336.7867067, 581129000.0, 1571640000.0, 33048100.0, 4448410000.0], [0.473684, 0.19, 3.1, 319.6171749, 362359000.0, 988007000.0, 25481800.0, 4226060000.0], [0.526316, 0.194445, 2.6, 283.5655632, 301063000.0, 838972000.0, 21407100.0, 3737370000.0], [0.578947, 0.1995059, 2.1, 247.5139515, 239766000.0, 689937000.0, 17332500.0, 3248670000.0], [0.631579, 0.2053202, 1.6, 211.4623398, 178470000.0, 540903000.0, 13257800.0, 2759970000.0], [0.684211, 0.2120698, 1.1, 175.4107281, 117173000.0, 391868000.0, 9183120.0, 2271270000.0], [0.736842, 0.22, 0.6, 139.3591164, 55876700.0, 242833000.0, 5108460.0, 1782570000.0], [0.789474, 0.2239497, 0.48, 114.8236118, 44839800.0, 199004000.0, 4195520.0, 1461230000.0], [0.842105, 0.2286372, 0.36, 90.2881072, 33802800.0, 155176000.0, 3282580.0, 1139890000.0], [0.894737, 0.2342908, 0.24, 65.7526025, 22765900.0, 111347000.0, 2369640.0, 818543000.0], [0.947368, 0.2412431, 0.12, 41.2170979, 11728900.0, 67518400.0, 1456700.0, 497199000.0], [1.0, 0.25, 0.0, 16.6815933, 691951.0, 23689700.0, 543767.0, 175855000.0]], "BldFl1Sh(4)_1": -2.7664, "HSSBrDT": 9999.9, "DT": 0.005, "BldFl1Sh(4)_2": -2.7664, "BldFl1Sh(4)_3": -2.7664, "TeetDOF": "False", "FurlFile": "unused", "AdjEdSt_1": 1.0, "BldCmnt_2": "FAST v7.02 blade file for turbine \"WP3.0A02V02\" (J. Rinker, Duke University, 30-Dec-15)", "AnalMode": 1.0, "CNST(9)": 0.213022441, "VS_SlPc": 9.9999e-06, "CompNoise": "False", "BlPitch(2)": 2.6, "TwSSM2Sh(6)": -39.7747, "RPM2P_Order": 1, "PitchFile": "pitch.ipt", "GenEff": 95.0, "SIG_SySp": 9999.9, "SttsTime": 1.0, "TStart": 30.0, "BldFl2Sh(6)_3": -7.2145, "PreCone(3)": 0.0, "TeetSSSp": 0.0, "TwFAM1Sh(4)": -0.6986, "CNST(4)": 2.6, "RPM2PI_Order": 1, "PitchCmnt": "Pitch controller for turbine \"WP3.0A02V02\" (J. Rinker, Duke University, 30-Dec-15)", "DTTorSpr": 1040000000.0, "BldEdgSh(4)_2": -8.1523, "GenModel": 1.0, "BldFl1Sh(3)_2": 2.3339, "BldFl1Sh(3)_3": 2.3339, "NacYawF": 0.0, "TwFAM2Sh(5)": 71.24, "DTAero": 0.005, "TwrFADmp(1)": 3.435, "P2P_Num": [36.7309, 0.0, 0.0], "OutList": ["\"WindVxi,WindVyi,WindVzi\"          \t- Wind-speed components\n", "\"OoPDefl1,IPDefl1,TipDzb1,TwrClrnc1\"\t- Blade 1 tip motions\n", "\"OoPDefl2,IPDefl2,TipDzb2,TwrClrnc2\"\t- Blade 2 tip motions\n", "\"OoPDefl3,IPDefl3,TipDzb3,TwrClrnc3\"\t- Blade 3 tip motions\n", "\"BldPitch1,BldPitch2,BldPitch3\"         - Blade pitch motions\n", "\"Azimuth,RotSpeed,RotAccel\"\t\t- LSS motion\n", "\"GenSpeed,GenAccel,TSR\"\t\t\t- HSS motion\n", "\"TTDspFA,TTDspSS,TTDspAx\"\t\t- Towertop motions\n", "\"YawBrTAxp,YawBrTAyp,YawBrTAzp\"\t\t- Towertop accelerations\n", "\"RootFzb1,RootMIP1,RootMOoP1,RootMzb1\"\t- Blade 1 root loads (1/2)\n", "\"RootMEdg1,RootMFlp1\"\t\t\t- Blade 1 root loads (2/2)\n", "\"RootFzb2,RootMIP2,RootMOoP2,RootMzb2\"\t- Blade 2 root loads (1/2)\n", "\"RootMEdg2,RootMFlp2\"\t\t\t- Blade 2 root loads (2/2)\n", "\"RootFzb3,RootMIP3,RootMOoP3,RootMzb3\"\t- Blade 3 root loads (1/2)\n", "\"RootMEdg3,RootMFlp3\"\t\t\t- Blade 3 root loads (2/2)\n", "\"RotThrust,LSSGagFya,LSSGagFza\"\t\t- Hub and rotor loads (1/3)\n", "\"LSSGagFys,LSSGagFzs,RotTorq,CThrstArm\"\t- Hub and rotor loads (2/3)\n", "\"LSShftPwr,LSShftCq,LSShftCp,LSShftCt\"\t- Hub and rotor loads (3/3)\n", "\"HSShftTq,HSShftPwr,HSShftCq,HSShftCp\"\t- Generator and HSS loads (1/2)\n", "\"GenTq,GenPwr,GenCq,GenCp\"\t\t- Generator and HSS loads (2/2)\n", "\"YawBrFzp,YawBrMzp\"\t\t\t- Tower top yaw-bearing loads\n", "\"TwrBsFxt,TwrBsFyt,TwrBsFzt\"\t\t- Tower base loads (1/2)\n", "\"TwrBsMxt,TwrBsMyt,TwrBsMzt\"\t\t- Tower base loads (2/2)\n"], "BldFl2Sh(4)_2": -0.0924, "YawNeut": 0.0, "Azimuth": 0.0, "HLModel": "PRANDtl", "NBlGages": 0.0, "AdjEdSt_3": 1.0, "NacCMzn": 1.860909, "TpBrDT": 0.0, "SIG_RtTq": 9999.9, "TwSSM1Sh(4)": -0.6986, "BldCmnt_1": "FAST v7.02 blade file for turbine \"WP3.0A02V02\" (J. Rinker, Duke University, 30-Dec-15)", "OoPDefl": 0.0, "BldCmnt_3": "FAST v7.02 blade file for turbine \"WP3.0A02V02\" (J. Rinker, Duke University, 30-Dec-15)", "BldFl1Sh(5)_2": 2.1932, "BldFl1Sh(5)_3": 2.1932, "HubIner": 197987.088064, "BldFl1Sh(5)_1": 2.1932, "Twr2Shft": 2.269, "TeetSStP": 0.0, "CNST(8)": 0.523598776, "BldSched_1": [[0.0, 0.25, 11.1, 2514.2728794, 25915800000.0, 25915800000.0, 8966510000.0, 28944400000.0], [0.021053, 0.25, 11.1, 378.4647644, 4995750000.0, 4995750000.0, 1745700000.0, 5635230000.0], [0.052632, 0.229428, 11.1, 382.964776, 4405830000.0, 4814150000.0, 1465310000.0, 5585650000.0], [0.105263, 0.2011856, 11.1, 390.4647954, 3422620000.0, 4511500000.0, 997974000.0, 5503030000.0], [0.157895, 0.1785491, 11.1, 397.9648147, 2439410000.0, 4208840000.0, 530644000.0, 5420400000.0], [0.210526, 0.16, 11.1, 405.4648341, 1456210000.0, 3906180000.0, 63313300.0, 5337780000.0], [0.263158, 0.1648255, 9.5, 388.2953023, 1237440000.0, 3322550000.0, 55747000.0, 5115440000.0], [0.315789, 0.1701476, 7.9, 371.1257704, 1018670000.0, 2738910000.0, 48180700.0, 4893090000.0], [0.368421, 0.1760471, 6.3, 353.9562386, 799899000.0, 2155280000.0, 40614400.0, 4670750000.0], [0.421053, 0.1826234, 4.7, 336.7867067, 581129000.0, 1571640000.0, 33048100.0, 4448410000.0], [0.473684, 0.19, 3.1, 319.6171749, 362359000.0, 988007000.0, 25481800.0, 4226060000.0], [0.526316, 0.194445, 2.6, 283.5655632, 301063000.0, 838972000.0, 21407100.0, 3737370000.0], [0.578947, 0.1995059, 2.1, 247.5139515, 239766000.0, 689937000.0, 17332500.0, 3248670000.0], [0.631579, 0.2053202, 1.6, 211.4623398, 178470000.0, 540903000.0, 13257800.0, 2759970000.0], [0.684211, 0.2120698, 1.1, 175.4107281, 117173000.0, 391868000.0, 9183120.0, 2271270000.0], [0.736842, 0.22, 0.6, 139.3591164, 55876700.0, 242833000.0, 5108460.0, 1782570000.0], [0.789474, 0.2239497, 0.48, 114.8236118, 44839800.0, 199004000.0, 4195520.0, 1461230000.0], [0.842105, 0.2286372, 0.36, 90.2881072, 33802800.0, 155176000.0, 3282580.0, 1139890000.0], [0.894737, 0.2342908, 0.24, 65.7526025, 22765900.0, 111347000.0, 2369640.0, 818543000.0], [0.947368, 0.2412431, 0.12, 41.2170979, 11728900.0, 67518400.0, 1456700.0, 497199000.0], [1.0, 0.25, 0.0, 16.6815933, 691951.0, 23689700.0, 543767.0, 175855000.0]], "BlPitch(3)": 2.6, "BldSched_3": [[0.0, 0.25, 11.1, 2514.2728794, 25915800000.0, 25915800000.0, 8966510000.0, 28944400000.0], [0.021053, 0.25, 11.1, 378.4647644, 4995750000.0, 4995750000.0, 1745700000.0, 5635230000.0], [0.052632, 0.229428, 11.1, 382.964776, 4405830000.0, 4814150000.0, 1465310000.0, 5585650000.0], [0.105263, 0.2011856, 11.1, 390.4647954, 3422620000.0, 4511500000.0, 997974000.0, 5503030000.0], [0.157895, 0.1785491, 11.1, 397.9648147, 2439410000.0, 4208840000.0, 530644000.0, 5420400000.0], [0.210526, 0.16, 11.1, 405.4648341, 1456210000.0, 3906180000.0, 63313300.0, 5337780000.0], [0.263158, 0.1648255, 9.5, 388.2953023, 1237440000.0, 3322550000.0, 55747000.0, 5115440000.0], [0.315789, 0.1701476, 7.9, 371.1257704, 1018670000.0, 2738910000.0, 48180700.0, 4893090000.0], [0.368421, 0.1760471, 6.3, 353.9562386, 799899000.0, 2155280000.0, 40614400.0, 4670750000.0], [0.421053, 0.1826234, 4.7, 336.7867067, 581129000.0, 1571640000.0, 33048100.0, 4448410000.0], [0.473684, 0.19, 3.1, 319.6171749, 362359000.0, 988007000.0, 25481800.0, 4226060000.0], [0.526316, 0.194445, 2.6, 283.5655632, 301063000.0, 838972000.0, 21407100.0, 3737370000.0], [0.578947, 0.1995059, 2.1, 247.5139515, 239766000.0, 689937000.0, 17332500.0, 3248670000.0], [0.631579, 0.2053202, 1.6, 211.4623398, 178470000.0, 540903000.0, 13257800.0, 2759970000.0], [0.684211, 0.2120698, 1.1, 175.4107281, 117173000.0, 391868000.0, 9183120.0, 2271270000.0], [0.736842, 0.22, 0.6, 139.3591164, 55876700.0, 242833000.0, 5108460.0, 1782570000.0], [0.789474, 0.2239497, 0.48, 114.8236118, 44839800.0, 199004000.0, 4195520.0, 1461230000.0], [0.842105, 0.2286372, 0.36, 90.2881072, 33802800.0, 155176000.0, 3282580.0, 1139890000.0], [0.894737, 0.2342908, 0.24, 65.7526025, 22765900.0, 111347000.0, 2369640.0, 818543000.0], [0.947368, 0.2412431, 0.12, 41.2170979, 11728900.0, 67518400.0, 1456700.0, 497199000.0], [1.0, 0.25, 0.0, 16.6815933, 691951.0, 23689700.0, 543767.0, 175855000.0]], "NBlInpSt_2": 21.0, "BldGagNd": 0.0, "BldFl1Sh(2)_1": 0.09, "BldFl2Sh(3)_1": -3.3468, "DTTorDmp": 4990000.0, "AdjEdSt_2": 1.0, "SIG_PORt": 9999.9, "YawDamp": 0.0, "BldFl1Sh(2)_2": 0.09, "TwFAM1Sh(3)": 0.5003}